Circuit: * C:\Users\RJ\Documents\LTspiceXVII\EE_347\cmos_2input.asc

Model "nmod1": Oxide thickness thinner than recommended for a level 1 MOSFET.
Instance "m3": Length shorter than recommended for a level 1 MOSFET.
Instance "m3": Width narrower than recommended for a level 1 MOSFET.
Instance "m4": Length shorter than recommended for a level 1 MOSFET.
Instance "m4": Width narrower than recommended for a level 1 MOSFET.
Model "pmod1": Oxide thickness thinner than recommended for a level 1 MOSFET.
Instance "m2": Length shorter than recommended for a level 1 MOSFET.
Instance "m1": Length shorter than recommended for a level 1 MOSFET.
Direct Newton iteration for .op point succeeded.

Date: Tue Feb 02 21:24:39 2021
Total elapsed time: 0.080 seconds.

tnom = 27
temp = 27
method = modified trap
totiter = 2557
traniter = 2547
tranpoints = 1214
accept = 1169
rejected = 45
matrix size = 16
fillins = 0
solver = Normal
Matrix Compiler1: 888 bytes object code size  0.2/0.1/[0.1]
Matrix Compiler2: 1.51 KB object code size  0.2/0.2/[0.2]

