Circuit: * C:\Users\RJ\Documents\LTspiceXVII\EE_347\domino_aoi_gate.asc

Warning: Multiple definitions of model "cd4007ube" Type: Mos1
Warning: Multiple definitions of model "cd4007" Type: Mos1
Ignoring BSIM parameter XL
Ignoring BSIM parameter XW
Ignoring BSIM parameter XL
Ignoring BSIM parameter XW
Warning: Pd = 0 is less than W.
Warning: Ps = 0 is less than W.
Warning: Pd = 0 is less than W.
Warning: Ps = 0 is less than W.
Direct Newton iteration for .op point succeeded.

Date: Mon Feb 08 11:12:32 2021
Total elapsed time: 0.102 seconds.

tnom = 27
temp = 27
method = modified trap
totiter = 3109
traniter = 3100
tranpoints = 1406
accept = 1318
rejected = 88
matrix size = 18
fillins = 2
solver = Normal
Matrix Compiler1: 950 bytes object code size  0.2/0.1/[0.1]
Matrix Compiler2: 1.49 KB object code size  0.1/0.2/[0.1]

