Circuit: * C:\Users\RJ\Documents\LTspiceXVII\4b_adder.asc

Warning: Multiple definitions of model "cd4007ube" Type: Mos1
Warning: Multiple definitions of model "cd4007" Type: Mos1
Warning: Multiple definitions of model "fa3:fa_carry:inverter4:cd4007ube" Type: Mos1
Warning: Multiple definitions of model "fa3:fa_carry:inverter4:cd4007" Type: Mos1
Warning: Multiple definitions of model "fa3:fa_carry:ha_sum2:xor:x3:inverter:cd4007ube" Type: Mos1
Warning: Multiple definitions of model "fa3:fa_carry:ha_sum2:xor:x3:inverter:cd4007" Type: Mos1
Warning: Multiple definitions of model "fa3:fa_carry:ha_sum2:xor:x1:inverter:cd4007ube" Type: Mos1
Warning: Multiple definitions of model "fa3:fa_carry:ha_sum2:xor:x1:inverter:cd4007" Type: Mos1
Warning: Multiple definitions of model "fa3:fa_carry:ha_sum1:xor:x3:inverter:cd4007ube" Type: Mos1
Warning: Multiple definitions of model "fa3:fa_carry:ha_sum1:xor:x3:inverter:cd4007" Type: Mos1
Warning: Multiple definitions of model "fa3:fa_carry:ha_sum1:xor:x1:inverter:cd4007ube" Type: Mos1
Warning: Multiple definitions of model "fa3:fa_carry:ha_sum1:xor:x1:inverter:cd4007" Type: Mos1
Warning: Multiple definitions of model "fa3:fa_carry:or3:inverter:cd4007ube" Type: Mos1
Warning: Multiple definitions of model "fa3:fa_carry:or3:inverter:cd4007" Type: Mos1
Warning: Multiple definitions of model "fa3:fa_carry:or2:inverter:cd4007ube" Type: Mos1
Warning: Multiple definitions of model "fa3:fa_carry:or2:inverter:cd4007" Type: Mos1
Warning: Multiple definitions of model "fa3:fa_carry:or1:inverter:cd4007ube" Type: Mos1
Warning: Multiple definitions of model "fa3:fa_carry:or1:inverter:cd4007" Type: Mos1
Warning: Multiple definitions of model "fa3:fa_carry:inverter3:cd4007ube" Type: Mos1
Warning: Multiple definitions of model "fa3:fa_carry:inverter3:cd4007" Type: Mos1
Warning: Multiple definitions of model "fa3:fa_carry:inverter2:cd4007ube" Type: Mos1
Warning: Multiple definitions of model "fa3:fa_carry:inverter2:cd4007" Type: Mos1
Warning: Multiple definitions of model "fa3:fa_carry:inverter1:cd4007ube" Type: Mos1
Warning: Multiple definitions of model "fa3:fa_carry:inverter1:cd4007" Type: Mos1
Warning: Multiple definitions of model "fa3:fa_sum:ha_sum2:xor:x3:inverter:cd4007ube" Type: Mos1
Warning: Multiple definitions of model "fa3:fa_sum:ha_sum2:xor:x3:inverter:cd4007" Type: Mos1
Warning: Multiple definitions of model "fa3:fa_sum:ha_sum2:xor:x1:inverter:cd4007ube" Type: Mos1
Warning: Multiple definitions of model "fa3:fa_sum:ha_sum2:xor:x1:inverter:cd4007" Type: Mos1
Warning: Multiple definitions of model "fa3:fa_sum:ha_sum1:xor:x3:inverter:cd4007ube" Type: Mos1
Warning: Multiple definitions of model "fa3:fa_sum:ha_sum1:xor:x3:inverter:cd4007" Type: Mos1
Warning: Multiple definitions of model "fa3:fa_sum:ha_sum1:xor:x1:inverter:cd4007ube" Type: Mos1
Warning: Multiple definitions of model "fa3:fa_sum:ha_sum1:xor:x1:inverter:cd4007" Type: Mos1
Warning: Multiple definitions of model "fa2:fa_carry:inverter4:cd4007ube" Type: Mos1
Warning: Multiple definitions of model "fa2:fa_carry:inverter4:cd4007" Type: Mos1
Warning: Multiple definitions of model "fa2:fa_carry:ha_sum2:xor:x3:inverter:cd4007ube" Type: Mos1
Warning: Multiple definitions of model "fa2:fa_carry:ha_sum2:xor:x3:inverter:cd4007" Type: Mos1
Warning: Multiple definitions of model "fa2:fa_carry:ha_sum2:xor:x1:inverter:cd4007ube" Type: Mos1
Warning: Multiple definitions of model "fa2:fa_carry:ha_sum2:xor:x1:inverter:cd4007" Type: Mos1
Warning: Multiple definitions of model "fa2:fa_carry:ha_sum1:xor:x3:inverter:cd4007ube" Type: Mos1
Warning: Multiple definitions of model "fa2:fa_carry:ha_sum1:xor:x3:inverter:cd4007" Type: Mos1
Warning: Multiple definitions of model "fa2:fa_carry:ha_sum1:xor:x1:inverter:cd4007ube" Type: Mos1
Warning: Multiple definitions of model "fa2:fa_carry:ha_sum1:xor:x1:inverter:cd4007" Type: Mos1
Warning: Multiple definitions of model "fa2:fa_carry:or3:inverter:cd4007ube" Type: Mos1
Warning: Multiple definitions of model "fa2:fa_carry:or3:inverter:cd4007" Type: Mos1
Warning: Multiple definitions of model "fa2:fa_carry:or2:inverter:cd4007ube" Type: Mos1
Warning: Multiple definitions of model "fa2:fa_carry:or2:inverter:cd4007" Type: Mos1
Warning: Multiple definitions of model "fa2:fa_carry:or1:inverter:cd4007ube" Type: Mos1
Warning: Multiple definitions of model "fa2:fa_carry:or1:inverter:cd4007" Type: Mos1
Warning: Multiple definitions of model "fa2:fa_carry:inverter3:cd4007ube" Type: Mos1
Warning: Multiple definitions of model "fa2:fa_carry:inverter3:cd4007" Type: Mos1
Warning: Multiple definitions of model "fa2:fa_carry:inverter2:cd4007ube" Type: Mos1
Warning: Multiple definitions of model "fa2:fa_carry:inverter2:cd4007" Type: Mos1
Warning: Multiple definitions of model "fa2:fa_carry:inverter1:cd4007ube" Type: Mos1
Warning: Multiple definitions of model "fa2:fa_carry:inverter1:cd4007" Type: Mos1
Warning: Multiple definitions of model "fa2:fa_sum:ha_sum2:xor:x3:inverter:cd4007ube" Type: Mos1
Warning: Multiple definitions of model "fa2:fa_sum:ha_sum2:xor:x3:inverter:cd4007" Type: Mos1
Warning: Multiple definitions of model "fa2:fa_sum:ha_sum2:xor:x1:inverter:cd4007ube" Type: Mos1
Warning: Multiple definitions of model "fa2:fa_sum:ha_sum2:xor:x1:inverter:cd4007" Type: Mos1
Warning: Multiple definitions of model "fa2:fa_sum:ha_sum1:xor:x3:inverter:cd4007ube" Type: Mos1
Warning: Multiple definitions of model "fa2:fa_sum:ha_sum1:xor:x3:inverter:cd4007" Type: Mos1
Warning: Multiple definitions of model "fa2:fa_sum:ha_sum1:xor:x1:inverter:cd4007ube" Type: Mos1
Warning: Multiple definitions of model "fa2:fa_sum:ha_sum1:xor:x1:inverter:cd4007" Type: Mos1
Warning: Multiple definitions of model "fa1:fa_carry:inverter4:cd4007ube" Type: Mos1
Warning: Multiple definitions of model "fa1:fa_carry:inverter4:cd4007" Type: Mos1
Warning: Multiple definitions of model "fa1:fa_carry:ha_sum2:xor:x3:inverter:cd4007ube" Type: Mos1
Warning: Multiple definitions of model "fa1:fa_carry:ha_sum2:xor:x3:inverter:cd4007" Type: Mos1
Warning: Multiple definitions of model "fa1:fa_carry:ha_sum2:xor:x1:inverter:cd4007ube" Type: Mos1
Warning: Multiple definitions of model "fa1:fa_carry:ha_sum2:xor:x1:inverter:cd4007" Type: Mos1
Warning: Multiple definitions of model "fa1:fa_carry:ha_sum1:xor:x3:inverter:cd4007ube" Type: Mos1
Warning: Multiple definitions of model "fa1:fa_carry:ha_sum1:xor:x3:inverter:cd4007" Type: Mos1
Warning: Multiple definitions of model "fa1:fa_carry:ha_sum1:xor:x1:inverter:cd4007ube" Type: Mos1
Warning: Multiple definitions of model "fa1:fa_carry:ha_sum1:xor:x1:inverter:cd4007" Type: Mos1
Warning: Multiple definitions of model "fa1:fa_carry:or3:inverter:cd4007ube" Type: Mos1
Warning: Multiple definitions of model "fa1:fa_carry:or3:inverter:cd4007" Type: Mos1
Warning: Multiple definitions of model "fa1:fa_carry:or2:inverter:cd4007ube" Type: Mos1
Warning: Multiple definitions of model "fa1:fa_carry:or2:inverter:cd4007" Type: Mos1
Warning: Multiple definitions of model "fa1:fa_carry:or1:inverter:cd4007ube" Type: Mos1
Warning: Multiple definitions of model "fa1:fa_carry:or1:inverter:cd4007" Type: Mos1
Warning: Multiple definitions of model "fa1:fa_carry:inverter3:cd4007ube" Type: Mos1
Warning: Multiple definitions of model "fa1:fa_carry:inverter3:cd4007" Type: Mos1
Warning: Multiple definitions of model "fa1:fa_carry:inverter2:cd4007ube" Type: Mos1
Warning: Multiple definitions of model "fa1:fa_carry:inverter2:cd4007" Type: Mos1
Warning: Multiple definitions of model "fa1:fa_carry:inverter1:cd4007ube" Type: Mos1
Warning: Multiple definitions of model "fa1:fa_carry:inverter1:cd4007" Type: Mos1
Warning: Multiple definitions of model "fa1:fa_sum:ha_sum2:xor:x3:inverter:cd4007ube" Type: Mos1
Warning: Multiple definitions of model "fa1:fa_sum:ha_sum2:xor:x3:inverter:cd4007" Type: Mos1
Warning: Multiple definitions of model "fa1:fa_sum:ha_sum2:xor:x1:inverter:cd4007ube" Type: Mos1
Warning: Multiple definitions of model "fa1:fa_sum:ha_sum2:xor:x1:inverter:cd4007" Type: Mos1
Warning: Multiple definitions of model "fa1:fa_sum:ha_sum1:xor:x3:inverter:cd4007ube" Type: Mos1
Warning: Multiple definitions of model "fa1:fa_sum:ha_sum1:xor:x3:inverter:cd4007" Type: Mos1
Warning: Multiple definitions of model "fa1:fa_sum:ha_sum1:xor:x1:inverter:cd4007ube" Type: Mos1
Warning: Multiple definitions of model "fa1:fa_sum:ha_sum1:xor:x1:inverter:cd4007" Type: Mos1
Warning: Multiple definitions of model "fa0:fa_carry:inverter4:cd4007ube" Type: Mos1
Warning: Multiple definitions of model "fa0:fa_carry:inverter4:cd4007" Type: Mos1
Warning: Multiple definitions of model "fa0:fa_carry:ha_sum2:xor:x3:inverter:cd4007ube" Type: Mos1
Warning: Multiple definitions of model "fa0:fa_carry:ha_sum2:xor:x3:inverter:cd4007" Type: Mos1
Warning: Multiple definitions of model "fa0:fa_carry:ha_sum2:xor:x1:inverter:cd4007ube" Type: Mos1
Warning: Multiple definitions of model "fa0:fa_carry:ha_sum2:xor:x1:inverter:cd4007" Type: Mos1
Warning: Multiple definitions of model "fa0:fa_carry:ha_sum1:xor:x3:inverter:cd4007ube" Type: Mos1
Warning: Multiple definitions of model "fa0:fa_carry:ha_sum1:xor:x3:inverter:cd4007" Type: Mos1
Warning: Multiple definitions of model "fa0:fa_carry:ha_sum1:xor:x1:inverter:cd4007ube" Type: Mos1
Warning: Multiple definitions of model "fa0:fa_carry:ha_sum1:xor:x1:inverter:cd4007" Type: Mos1
Warning: Multiple definitions of model "fa0:fa_carry:or3:inverter:cd4007ube" Type: Mos1
Warning: Multiple definitions of model "fa0:fa_carry:or3:inverter:cd4007" Type: Mos1
Warning: Multiple definitions of model "fa0:fa_carry:or2:inverter:cd4007ube" Type: Mos1
Warning: Multiple definitions of model "fa0:fa_carry:or2:inverter:cd4007" Type: Mos1
Warning: Multiple definitions of model "fa0:fa_carry:or1:inverter:cd4007ube" Type: Mos1
Warning: Multiple definitions of model "fa0:fa_carry:or1:inverter:cd4007" Type: Mos1
Warning: Multiple definitions of model "fa0:fa_carry:inverter3:cd4007ube" Type: Mos1
Warning: Multiple definitions of model "fa0:fa_carry:inverter3:cd4007" Type: Mos1
Warning: Multiple definitions of model "fa0:fa_carry:inverter2:cd4007ube" Type: Mos1
Warning: Multiple definitions of model "fa0:fa_carry:inverter2:cd4007" Type: Mos1
Warning: Multiple definitions of model "fa0:fa_carry:inverter1:cd4007ube" Type: Mos1
Warning: Multiple definitions of model "fa0:fa_carry:inverter1:cd4007" Type: Mos1
Warning: Multiple definitions of model "fa0:fa_sum:ha_sum2:xor:x3:inverter:cd4007ube" Type: Mos1
Warning: Multiple definitions of model "fa0:fa_sum:ha_sum2:xor:x3:inverter:cd4007" Type: Mos1
Warning: Multiple definitions of model "fa0:fa_sum:ha_sum2:xor:x1:inverter:cd4007ube" Type: Mos1
Warning: Multiple definitions of model "fa0:fa_sum:ha_sum2:xor:x1:inverter:cd4007" Type: Mos1
Warning: Multiple definitions of model "fa0:fa_sum:ha_sum1:xor:x3:inverter:cd4007ube" Type: Mos1
Warning: Multiple definitions of model "fa0:fa_sum:ha_sum1:xor:x3:inverter:cd4007" Type: Mos1
Warning: Multiple definitions of model "fa0:fa_sum:ha_sum1:xor:x1:inverter:cd4007ube" Type: Mos1
Warning: Multiple definitions of model "fa0:fa_sum:ha_sum1:xor:x1:inverter:cd4007" Type: Mos1
Ignoring BSIM parameter XL
Ignoring BSIM parameter XW
Ignoring BSIM parameter XL
Ignoring BSIM parameter XW
Ignoring BSIM parameter XL
Ignoring BSIM parameter XW
Ignoring BSIM parameter XL
Ignoring BSIM parameter XW
Ignoring BSIM parameter XL
Ignoring BSIM parameter XW
Ignoring BSIM parameter XL
Ignoring BSIM parameter XW
Ignoring BSIM parameter XL
Ignoring BSIM parameter XW
Ignoring BSIM parameter XL
Ignoring BSIM parameter XW
Ignoring BSIM parameter XL
Ignoring BSIM parameter XW
Ignoring BSIM parameter XL
Ignoring BSIM parameter XW
Ignoring BSIM parameter XL
Ignoring BSIM parameter XW
Ignoring BSIM parameter XL
Ignoring BSIM parameter XW
Ignoring BSIM parameter XL
Ignoring BSIM parameter XW
Ignoring BSIM parameter XL
Ignoring BSIM parameter XW
Ignoring BSIM parameter XL
Ignoring BSIM parameter XW
Ignoring BSIM parameter XL
Ignoring BSIM parameter XW
Ignoring BSIM parameter XL
Ignoring BSIM parameter XW
Ignoring BSIM parameter XL
Ignoring BSIM parameter XW
Ignoring BSIM parameter XL
Ignoring BSIM parameter XW
Ignoring BSIM parameter XL
Ignoring BSIM parameter XW
Ignoring BSIM parameter XL
Ignoring BSIM parameter XW
Ignoring BSIM parameter XL
Ignoring BSIM parameter XW
Ignoring BSIM parameter XL
Ignoring BSIM parameter XW
Ignoring BSIM parameter XL
Ignoring BSIM parameter XW
Ignoring BSIM parameter XL
Ignoring BSIM parameter XW
Ignoring BSIM parameter XL
Ignoring BSIM parameter XW
Ignoring BSIM parameter XL
Ignoring BSIM parameter XW
Ignoring BSIM parameter XL
Ignoring BSIM parameter XW
Ignoring BSIM parameter XL
Ignoring BSIM parameter XW
Ignoring BSIM parameter XL
Ignoring BSIM parameter XW
Ignoring BSIM parameter XL
Ignoring BSIM parameter XW
Ignoring BSIM parameter XL
Ignoring BSIM parameter XW
Ignoring BSIM parameter XL
Ignoring BSIM parameter XW
Ignoring BSIM parameter XL
Ignoring BSIM parameter XW
Ignoring BSIM parameter XL
Ignoring BSIM parameter XW
Ignoring BSIM parameter XL
Ignoring BSIM parameter XW
Ignoring BSIM parameter XL
Ignoring BSIM parameter XW
Ignoring BSIM parameter XL
Ignoring BSIM parameter XW
Ignoring BSIM parameter XL
Ignoring BSIM parameter XW
Ignoring BSIM parameter XL
Ignoring BSIM parameter XW
Ignoring BSIM parameter XL
Ignoring BSIM parameter XW
Ignoring BSIM parameter XL
Ignoring BSIM parameter XW
Ignoring BSIM parameter XL
Ignoring BSIM parameter XW
Ignoring BSIM parameter XL
Ignoring BSIM parameter XW
Ignoring BSIM parameter XL
Ignoring BSIM parameter XW
Ignoring BSIM parameter XL
Ignoring BSIM parameter XW
Ignoring BSIM parameter XL
Ignoring BSIM parameter XW
Ignoring BSIM parameter XL
Ignoring BSIM parameter XW
Ignoring BSIM parameter XL
Ignoring BSIM parameter XW
Ignoring BSIM parameter XL
Ignoring BSIM parameter XW
Ignoring BSIM parameter XL
Ignoring BSIM parameter XW
Ignoring BSIM parameter XL
Ignoring BSIM parameter XW
Ignoring BSIM parameter XL
Ignoring BSIM parameter XW
Ignoring BSIM parameter XL
Ignoring BSIM parameter XW
Ignoring BSIM parameter XL
Ignoring BSIM parameter XW
Ignoring BSIM parameter XL
Ignoring BSIM parameter XW
Ignoring BSIM parameter XL
Ignoring BSIM parameter XW
Ignoring BSIM parameter XL
Ignoring BSIM parameter XW
Ignoring BSIM parameter XL
Ignoring BSIM parameter XW
Ignoring BSIM parameter XL
Ignoring BSIM parameter XW
Ignoring BSIM parameter XL
Ignoring BSIM parameter XW
Ignoring BSIM parameter XL
Ignoring BSIM parameter XW
Ignoring BSIM parameter XL
Ignoring BSIM parameter XW
Ignoring BSIM parameter XL
Ignoring BSIM parameter XW
Ignoring BSIM parameter XL
Ignoring BSIM parameter XW
Ignoring BSIM parameter XL
Ignoring BSIM parameter XW
Ignoring BSIM parameter XL
Ignoring BSIM parameter XW
Ignoring BSIM parameter XL
Ignoring BSIM parameter XW
Ignoring BSIM parameter XL
Ignoring BSIM parameter XW
Ignoring BSIM parameter XL
Ignoring BSIM parameter XW
Ignoring BSIM parameter XL
Ignoring BSIM parameter XW
Ignoring BSIM parameter XL
Ignoring BSIM parameter XW
Ignoring BSIM parameter XL
Ignoring BSIM parameter XW
Ignoring BSIM parameter XL
Ignoring BSIM parameter XW
Ignoring BSIM parameter XL
Ignoring BSIM parameter XW
Ignoring BSIM parameter XL
Ignoring BSIM parameter XW
Ignoring BSIM parameter XL
Ignoring BSIM parameter XW
Ignoring BSIM parameter XL
Ignoring BSIM parameter XW
Ignoring BSIM parameter XL
Ignoring BSIM parameter XW
Ignoring BSIM parameter XL
Ignoring BSIM parameter XW
Ignoring BSIM parameter XL
Ignoring BSIM parameter XW
Ignoring BSIM parameter XL
Ignoring BSIM parameter XW
Ignoring BSIM parameter XL
Ignoring BSIM parameter XW
Ignoring BSIM parameter XL
Ignoring BSIM parameter XW
Ignoring BSIM parameter XL
Ignoring BSIM parameter XW
Ignoring BSIM parameter XL
Ignoring BSIM parameter XW
Ignoring BSIM parameter XL
Ignoring BSIM parameter XW
Ignoring BSIM parameter XL
Ignoring BSIM parameter XW
Ignoring BSIM parameter XL
Ignoring BSIM parameter XW
Ignoring BSIM parameter XL
Ignoring BSIM parameter XW
Ignoring BSIM parameter XL
Ignoring BSIM parameter XW
Ignoring BSIM parameter XL
Ignoring BSIM parameter XW
Ignoring BSIM parameter XL
Ignoring BSIM parameter XW
Ignoring BSIM parameter XL
Ignoring BSIM parameter XW
Ignoring BSIM parameter XL
Ignoring BSIM parameter XW
Ignoring BSIM parameter XL
Ignoring BSIM parameter XW
Ignoring BSIM parameter XL
Ignoring BSIM parameter XW
Ignoring BSIM parameter XL
Ignoring BSIM parameter XW
Ignoring BSIM parameter XL
Ignoring BSIM parameter XW
Ignoring BSIM parameter XL
Ignoring BSIM parameter XW
Ignoring BSIM parameter XL
Ignoring BSIM parameter XW
Ignoring BSIM parameter XL
Ignoring BSIM parameter XW
Ignoring BSIM parameter XL
Ignoring BSIM parameter XW
Ignoring BSIM parameter XL
Ignoring BSIM parameter XW
Ignoring BSIM parameter XL
Ignoring BSIM parameter XW
Ignoring BSIM parameter XL
Ignoring BSIM parameter XW
Ignoring BSIM parameter XL
Ignoring BSIM parameter XW
Ignoring BSIM parameter XL
Ignoring BSIM parameter XW
Ignoring BSIM parameter XL
Ignoring BSIM parameter XW
Ignoring BSIM parameter XL
Ignoring BSIM parameter XW
Ignoring BSIM parameter XL
Ignoring BSIM parameter XW
Ignoring BSIM parameter XL
Ignoring BSIM parameter XW
Ignoring BSIM parameter XL
Ignoring BSIM parameter XW
Ignoring BSIM parameter XL
Ignoring BSIM parameter XW
Ignoring BSIM parameter XL
Ignoring BSIM parameter XW
Ignoring BSIM parameter XL
Ignoring BSIM parameter XW
Ignoring BSIM parameter XL
Ignoring BSIM parameter XW
Ignoring BSIM parameter XL
Ignoring BSIM parameter XW
Ignoring BSIM parameter XL
Ignoring BSIM parameter XW
Ignoring BSIM parameter XL
Ignoring BSIM parameter XW
Ignoring BSIM parameter XL
Ignoring BSIM parameter XW
Ignoring BSIM parameter XL
Ignoring BSIM parameter XW
WARNING: Specified period is not longer than the sum of Trise, Tfall, and Ton for v_b3.  Increasing period to 0.00800002
WARNING: Specified period is not longer than the sum of Trise, Tfall, and Ton for v_b2.  Increasing period to 0.00800002
WARNING: Specified period is not longer than the sum of Trise, Tfall, and Ton for v_b1.  Increasing period to 0.00800002
WARNING: Specified period is not longer than the sum of Trise, Tfall, and Ton for v_b0.  Increasing period to 0.00800002
WARNING: Specified period is not longer than the sum of Trise, Tfall, and Ton for v_a3.  Increasing period to 0.00800002
WARNING: Specified period is not longer than the sum of Trise, Tfall, and Ton for v_a2.  Increasing period to 0.00800002
WARNING: Specified period is not longer than the sum of Trise, Tfall, and Ton for v_a1.  Increasing period to 0.00800002
WARNING: Specified period is not longer than the sum of Trise, Tfall, and Ton for v_a0.  Increasing period to 0.00800002
Warning: Pd = 0 is less than W.
Warning: Ps = 0 is less than W.
Warning: Pd = 0 is less than W.
Warning: Ps = 0 is less than W.
Warning: Pd = 0 is less than W.
Warning: Ps = 0 is less than W.
Warning: Pd = 0 is less than W.
Warning: Ps = 0 is less than W.
Warning: Pd = 0 is less than W.
Warning: Ps = 0 is less than W.
Warning: Pd = 0 is less than W.
Warning: Ps = 0 is less than W.
Warning: Pd = 0 is less than W.
Warning: Ps = 0 is less than W.
Warning: Pd = 0 is less than W.
Warning: Ps = 0 is less than W.
Warning: Pd = 0 is less than W.
Warning: Ps = 0 is less than W.
Warning: Pd = 0 is less than W.
Warning: Ps = 0 is less than W.
Warning: Pd = 0 is less than W.
Warning: Ps = 0 is less than W.
Warning: Pd = 0 is less than W.
Warning: Ps = 0 is less than W.
Warning: Pd = 0 is less than W.
Warning: Ps = 0 is less than W.
Warning: Pd = 0 is less than W.
Warning: Ps = 0 is less than W.
Warning: Pd = 0 is less than W.
Warning: Ps = 0 is less than W.
Warning: Pd = 0 is less than W.
Warning: Ps = 0 is less than W.
Warning: Pd = 0 is less than W.
Warning: Ps = 0 is less than W.
Warning: Pd = 0 is less than W.
Warning: Ps = 0 is less than W.
Warning: Pd = 0 is less than W.
Warning: Ps = 0 is less than W.
Warning: Pd = 0 is less than W.
Warning: Ps = 0 is less than W.
Warning: Pd = 0 is less than W.
Warning: Ps = 0 is less than W.
Warning: Pd = 0 is less than W.
Warning: Ps = 0 is less than W.
Warning: Pd = 0 is less than W.
Warning: Ps = 0 is less than W.
Warning: Pd = 0 is less than W.
Warning: Ps = 0 is less than W.
Warning: Pd = 0 is less than W.
Warning: Ps = 0 is less than W.
Warning: Pd = 0 is less than W.
Warning: Ps = 0 is less than W.
Warning: Pd = 0 is less than W.
Warning: Ps = 0 is less than W.
Warning: Pd = 0 is less than W.
Warning: Ps = 0 is less than W.
Warning: Pd = 0 is less than W.
Warning: Ps = 0 is less than W.
Warning: Pd = 0 is less than W.
Warning: Ps = 0 is less than W.
Warning: Pd = 0 is less than W.
Warning: Ps = 0 is less than W.
Warning: Pd = 0 is less than W.
Warning: Ps = 0 is less than W.
Warning: Pd = 0 is less than W.
Warning: Ps = 0 is less than W.
Warning: Pd = 0 is less than W.
Warning: Ps = 0 is less than W.
Warning: Pd = 0 is less than W.
Warning: Ps = 0 is less than W.
Warning: Pd = 0 is less than W.
Warning: Ps = 0 is less than W.
Warning: Pd = 0 is less than W.
Warning: Ps = 0 is less than W.
Warning: Pd = 0 is less than W.
Warning: Ps = 0 is less than W.
Warning: Pd = 0 is less than W.
Warning: Ps = 0 is less than W.
Warning: Pd = 0 is less than W.
Warning: Ps = 0 is less than W.
Warning: Pd = 0 is less than W.
Warning: Ps = 0 is less than W.
Warning: Pd = 0 is less than W.
Warning: Ps = 0 is less than W.
Warning: Pd = 0 is less than W.
Warning: Ps = 0 is less than W.
Warning: Pd = 0 is less than W.
Warning: Ps = 0 is less than W.
Warning: Pd = 0 is less than W.
Warning: Ps = 0 is less than W.
Warning: Pd = 0 is less than W.
Warning: Ps = 0 is less than W.
Warning: Pd = 0 is less than W.
Warning: Ps = 0 is less than W.
Warning: Pd = 0 is less than W.
Warning: Ps = 0 is less than W.
Warning: Pd = 0 is less than W.
Warning: Ps = 0 is less than W.
Warning: Pd = 0 is less than W.
Warning: Ps = 0 is less than W.
Warning: Pd = 0 is less than W.
Warning: Ps = 0 is less than W.
Warning: Pd = 0 is less than W.
Warning: Ps = 0 is less than W.
Warning: Pd = 0 is less than W.
Warning: Ps = 0 is less than W.
Warning: Pd = 0 is less than W.
Warning: Ps = 0 is less than W.
Warning: Pd = 0 is less than W.
Warning: Ps = 0 is less than W.
Warning: Pd = 0 is less than W.
Warning: Ps = 0 is less than W.
Warning: Pd = 0 is less than W.
Warning: Ps = 0 is less than W.
Warning: Pd = 0 is less than W.
Warning: Ps = 0 is less than W.
Warning: Pd = 0 is less than W.
Warning: Ps = 0 is less than W.
Warning: Pd = 0 is less than W.
Warning: Ps = 0 is less than W.
Warning: Pd = 0 is less than W.
Warning: Ps = 0 is less than W.
Warning: Pd = 0 is less than W.
Warning: Ps = 0 is less than W.
Warning: Pd = 0 is less than W.
Warning: Ps = 0 is less than W.
Warning: Pd = 0 is less than W.
Warning: Ps = 0 is less than W.
Warning: Pd = 0 is less than W.
Warning: Ps = 0 is less than W.
Warning: Pd = 0 is less than W.
Warning: Ps = 0 is less than W.
Warning: Pd = 0 is less than W.
Warning: Ps = 0 is less than W.
Warning: Pd = 0 is less than W.
Warning: Ps = 0 is less than W.
Warning: Pd = 0 is less than W.
Warning: Ps = 0 is less than W.
Warning: Pd = 0 is less than W.
Warning: Ps = 0 is less than W.
Warning: Pd = 0 is less than W.
Warning: Ps = 0 is less than W.
Warning: Pd = 0 is less than W.
Warning: Ps = 0 is less than W.
Warning: Pd = 0 is less than W.
Warning: Ps = 0 is less than W.
Warning: Pd = 0 is less than W.
Warning: Ps = 0 is less than W.
Warning: Pd = 0 is less than W.
Warning: Ps = 0 is less than W.
Warning: Pd = 0 is less than W.
Warning: Ps = 0 is less than W.
Warning: Pd = 0 is less than W.
Warning: Ps = 0 is less than W.
Warning: Pd = 0 is less than W.
Warning: Ps = 0 is less than W.
Warning: Pd = 0 is less than W.
Warning: Ps = 0 is less than W.
Warning: Pd = 0 is less than W.
Warning: Ps = 0 is less than W.
Warning: Pd = 0 is less than W.
Warning: Ps = 0 is less than W.
Warning: Pd = 0 is less than W.
Warning: Ps = 0 is less than W.
Warning: Pd = 0 is less than W.
Warning: Ps = 0 is less than W.
Warning: Pd = 0 is less than W.
Warning: Ps = 0 is less than W.
Warning: Pd = 0 is less than W.
Warning: Ps = 0 is less than W.
Warning: Pd = 0 is less than W.
Warning: Ps = 0 is less than W.
Warning: Pd = 0 is less than W.
Warning: Ps = 0 is less than W.
Warning: Pd = 0 is less than W.
Warning: Ps = 0 is less than W.
Warning: Pd = 0 is less than W.
Warning: Ps = 0 is less than W.
Warning: Pd = 0 is less than W.
Warning: Ps = 0 is less than W.
Warning: Pd = 0 is less than W.
Warning: Ps = 0 is less than W.
Warning: Pd = 0 is less than W.
Warning: Ps = 0 is less than W.
Warning: Pd = 0 is less than W.
Warning: Ps = 0 is less than W.
Warning: Pd = 0 is less than W.
Warning: Ps = 0 is less than W.
Warning: Pd = 0 is less than W.
Warning: Ps = 0 is less than W.
Warning: Pd = 0 is less than W.
Warning: Ps = 0 is less than W.
Warning: Pd = 0 is less than W.
Warning: Ps = 0 is less than W.
Warning: Pd = 0 is less than W.
Warning: Ps = 0 is less than W.
Warning: Pd = 0 is less than W.
Warning: Ps = 0 is less than W.
Warning: Pd = 0 is less than W.
Warning: Ps = 0 is less than W.
Warning: Pd = 0 is less than W.
Warning: Ps = 0 is less than W.
Warning: Pd = 0 is less than W.
Warning: Ps = 0 is less than W.
Warning: Pd = 0 is less than W.
Warning: Ps = 0 is less than W.
Warning: Pd = 0 is less than W.
Warning: Ps = 0 is less than W.
Warning: Pd = 0 is less than W.
Warning: Ps = 0 is less than W.
Warning: Pd = 0 is less than W.
Warning: Ps = 0 is less than W.
Warning: Pd = 0 is less than W.
Warning: Ps = 0 is less than W.
Warning: Pd = 0 is less than W.
Warning: Ps = 0 is less than W.
Warning: Pd = 0 is less than W.
Warning: Ps = 0 is less than W.
Warning: Pd = 0 is less than W.
Warning: Ps = 0 is less than W.
Warning: Pd = 0 is less than W.
Warning: Ps = 0 is less than W.
Warning: Pd = 0 is less than W.
Warning: Ps = 0 is less than W.
Warning: Pd = 0 is less than W.
Warning: Ps = 0 is less than W.
Warning: Pd = 0 is less than W.
Warning: Ps = 0 is less than W.
Warning: Pd = 0 is less than W.
Warning: Ps = 0 is less than W.
Warning: Pd = 0 is less than W.
Warning: Ps = 0 is less than W.
Warning: Pd = 0 is less than W.
Warning: Ps = 0 is less than W.
Warning: Pd = 0 is less than W.
Warning: Ps = 0 is less than W.
Warning: Pd = 0 is less than W.
Warning: Ps = 0 is less than W.
Warning: Pd = 0 is less than W.
Warning: Ps = 0 is less than W.
Warning: Pd = 0 is less than W.
Warning: Ps = 0 is less than W.
Warning: Pd = 0 is less than W.
Warning: Ps = 0 is less than W.
Direct Newton iteration failed to find .op point.  (Use ".option noopiter" to skip.)
Starting Gmin stepping
Gmin = 10
Gmin = 1.07374
Gmin = 0.115292
Gmin = 0.0123794
Gmin = 0.00132923
Gmin = 0.000142725
Gmin = 1.5325e-005
Gmin = 1.6455e-006
Gmin = 1.76685e-007
Gmin = 1.89714e-008
Gmin = 2.03704e-009
Gmin = 2.18725e-010
Gmin = 2.34854e-011
Gmin = 2.52173e-012
Gmin = 2.70769e-013
Gmin = 0
Gmin stepping succeeded in finding the operating point.


Date: Wed Jan 27 17:30:58 2021
Total elapsed time: 0.668 seconds.

tnom = 27
temp = 27
method = modified trap
totiter = 2525
traniter = 2082
tranpoints = 1042
accept = 1042
rejected = 0
matrix size = 198
fillins = 262
solver = Normal
Thread vector: 157.8/94.6[4] 35.6/21.9[4] 12.2/11.2[1] 1.3/2.5[1]  2592/500
Matrix Compiler1: 38.63 KB object code size  9.6/4.4/[1.7]
Matrix Compiler2: 29.08 KB object code size  5.4/4.4/[2.8]

