Circuit: * C:\Users\RJ\Documents\LTspiceXVII\adder.asc

Warning: Multiple definitions of model "cd4007ube" Type: Mos1
Warning: Multiple definitions of model "cd4007" Type: Mos1
Warning: Multiple definitions of model "fa4:fa_carry:inverter4:cd4007ube" Type: Mos1
Warning: Multiple definitions of model "fa4:fa_carry:inverter4:cd4007" Type: Mos1
Warning: Multiple definitions of model "fa4:fa_carry:ha_sum2:xor:x3:inverter:cd4007ube" Type: Mos1
Warning: Multiple definitions of model "fa4:fa_carry:ha_sum2:xor:x3:inverter:cd4007" Type: Mos1
Warning: Multiple definitions of model "fa4:fa_carry:ha_sum2:xor:x1:inverter:cd4007ube" Type: Mos1
Warning: Multiple definitions of model "fa4:fa_carry:ha_sum2:xor:x1:inverter:cd4007" Type: Mos1
Warning: Multiple definitions of model "fa4:fa_carry:ha_sum1:xor:x3:inverter:cd4007ube" Type: Mos1
Warning: Multiple definitions of model "fa4:fa_carry:ha_sum1:xor:x3:inverter:cd4007" Type: Mos1
Warning: Multiple definitions of model "fa4:fa_carry:ha_sum1:xor:x1:inverter:cd4007ube" Type: Mos1
Warning: Multiple definitions of model "fa4:fa_carry:ha_sum1:xor:x1:inverter:cd4007" Type: Mos1
Warning: Multiple definitions of model "fa4:fa_carry:or3:inverter:cd4007ube" Type: Mos1
Warning: Multiple definitions of model "fa4:fa_carry:or3:inverter:cd4007" Type: Mos1
Warning: Multiple definitions of model "fa4:fa_carry:or2:inverter:cd4007ube" Type: Mos1
Warning: Multiple definitions of model "fa4:fa_carry:or2:inverter:cd4007" Type: Mos1
Warning: Multiple definitions of model "fa4:fa_carry:or1:inverter:cd4007ube" Type: Mos1
Warning: Multiple definitions of model "fa4:fa_carry:or1:inverter:cd4007" Type: Mos1
Warning: Multiple definitions of model "fa4:fa_carry:inverter3:cd4007ube" Type: Mos1
Warning: Multiple definitions of model "fa4:fa_carry:inverter3:cd4007" Type: Mos1
Warning: Multiple definitions of model "fa4:fa_carry:inverter2:cd4007ube" Type: Mos1
Warning: Multiple definitions of model "fa4:fa_carry:inverter2:cd4007" Type: Mos1
Warning: Multiple definitions of model "fa4:fa_carry:inverter1:cd4007ube" Type: Mos1
Warning: Multiple definitions of model "fa4:fa_carry:inverter1:cd4007" Type: Mos1
Warning: Multiple definitions of model "fa4:fa_sum:ha_sum2:xor:x3:inverter:cd4007ube" Type: Mos1
Warning: Multiple definitions of model "fa4:fa_sum:ha_sum2:xor:x3:inverter:cd4007" Type: Mos1
Warning: Multiple definitions of model "fa4:fa_sum:ha_sum2:xor:x1:inverter:cd4007ube" Type: Mos1
Warning: Multiple definitions of model "fa4:fa_sum:ha_sum2:xor:x1:inverter:cd4007" Type: Mos1
Warning: Multiple definitions of model "fa4:fa_sum:ha_sum1:xor:x3:inverter:cd4007ube" Type: Mos1
Warning: Multiple definitions of model "fa4:fa_sum:ha_sum1:xor:x3:inverter:cd4007" Type: Mos1
Warning: Multiple definitions of model "fa4:fa_sum:ha_sum1:xor:x1:inverter:cd4007ube" Type: Mos1
Warning: Multiple definitions of model "fa4:fa_sum:ha_sum1:xor:x1:inverter:cd4007" Type: Mos1
Warning: Multiple definitions of model "fa3:fa_carry:inverter4:cd4007ube" Type: Mos1
Warning: Multiple definitions of model "fa3:fa_carry:inverter4:cd4007" Type: Mos1
Warning: Multiple definitions of model "fa3:fa_carry:ha_sum2:xor:x3:inverter:cd4007ube" Type: Mos1
Warning: Multiple definitions of model "fa3:fa_carry:ha_sum2:xor:x3:inverter:cd4007" Type: Mos1
Warning: Multiple definitions of model "fa3:fa_carry:ha_sum2:xor:x1:inverter:cd4007ube" Type: Mos1
Warning: Multiple definitions of model "fa3:fa_carry:ha_sum2:xor:x1:inverter:cd4007" Type: Mos1
Warning: Multiple definitions of model "fa3:fa_carry:ha_sum1:xor:x3:inverter:cd4007ube" Type: Mos1
Warning: Multiple definitions of model "fa3:fa_carry:ha_sum1:xor:x3:inverter:cd4007" Type: Mos1
Warning: Multiple definitions of model "fa3:fa_carry:ha_sum1:xor:x1:inverter:cd4007ube" Type: Mos1
Warning: Multiple definitions of model "fa3:fa_carry:ha_sum1:xor:x1:inverter:cd4007" Type: Mos1
Warning: Multiple definitions of model "fa3:fa_carry:or3:inverter:cd4007ube" Type: Mos1
Warning: Multiple definitions of model "fa3:fa_carry:or3:inverter:cd4007" Type: Mos1
Warning: Multiple definitions of model "fa3:fa_carry:or2:inverter:cd4007ube" Type: Mos1
Warning: Multiple definitions of model "fa3:fa_carry:or2:inverter:cd4007" Type: Mos1
Warning: Multiple definitions of model "fa3:fa_carry:or1:inverter:cd4007ube" Type: Mos1
Warning: Multiple definitions of model "fa3:fa_carry:or1:inverter:cd4007" Type: Mos1
Warning: Multiple definitions of model "fa3:fa_carry:inverter3:cd4007ube" Type: Mos1
Warning: Multiple definitions of model "fa3:fa_carry:inverter3:cd4007" Type: Mos1
Warning: Multiple definitions of model "fa3:fa_carry:inverter2:cd4007ube" Type: Mos1
Warning: Multiple definitions of model "fa3:fa_carry:inverter2:cd4007" Type: Mos1
Warning: Multiple definitions of model "fa3:fa_carry:inverter1:cd4007ube" Type: Mos1
Warning: Multiple definitions of model "fa3:fa_carry:inverter1:cd4007" Type: Mos1
Warning: Multiple definitions of model "fa3:fa_sum:ha_sum2:xor:x3:inverter:cd4007ube" Type: Mos1
Warning: Multiple definitions of model "fa3:fa_sum:ha_sum2:xor:x3:inverter:cd4007" Type: Mos1
Warning: Multiple definitions of model "fa3:fa_sum:ha_sum2:xor:x1:inverter:cd4007ube" Type: Mos1
Warning: Multiple definitions of model "fa3:fa_sum:ha_sum2:xor:x1:inverter:cd4007" Type: Mos1
Warning: Multiple definitions of model "fa3:fa_sum:ha_sum1:xor:x3:inverter:cd4007ube" Type: Mos1
Warning: Multiple definitions of model "fa3:fa_sum:ha_sum1:xor:x3:inverter:cd4007" Type: Mos1
Warning: Multiple definitions of model "fa3:fa_sum:ha_sum1:xor:x1:inverter:cd4007ube" Type: Mos1
Warning: Multiple definitions of model "fa3:fa_sum:ha_sum1:xor:x1:inverter:cd4007" Type: Mos1
Warning: Multiple definitions of model "fa2:fa_carry:inverter4:cd4007ube" Type: Mos1
Warning: Multiple definitions of model "fa2:fa_carry:inverter4:cd4007" Type: Mos1
Warning: Multiple definitions of model "fa2:fa_carry:ha_sum2:xor:x3:inverter:cd4007ube" Type: Mos1
Warning: Multiple definitions of model "fa2:fa_carry:ha_sum2:xor:x3:inverter:cd4007" Type: Mos1
Warning: Multiple definitions of model "fa2:fa_carry:ha_sum2:xor:x1:inverter:cd4007ube" Type: Mos1
Warning: Multiple definitions of model "fa2:fa_carry:ha_sum2:xor:x1:inverter:cd4007" Type: Mos1
Warning: Multiple definitions of model "fa2:fa_carry:ha_sum1:xor:x3:inverter:cd4007ube" Type: Mos1
Warning: Multiple definitions of model "fa2:fa_carry:ha_sum1:xor:x3:inverter:cd4007" Type: Mos1
Warning: Multiple definitions of model "fa2:fa_carry:ha_sum1:xor:x1:inverter:cd4007ube" Type: Mos1
Warning: Multiple definitions of model "fa2:fa_carry:ha_sum1:xor:x1:inverter:cd4007" Type: Mos1
Warning: Multiple definitions of model "fa2:fa_carry:or3:inverter:cd4007ube" Type: Mos1
Warning: Multiple definitions of model "fa2:fa_carry:or3:inverter:cd4007" Type: Mos1
Warning: Multiple definitions of model "fa2:fa_carry:or2:inverter:cd4007ube" Type: Mos1
Warning: Multiple definitions of model "fa2:fa_carry:or2:inverter:cd4007" Type: Mos1
Warning: Multiple definitions of model "fa2:fa_carry:or1:inverter:cd4007ube" Type: Mos1
Warning: Multiple definitions of model "fa2:fa_carry:or1:inverter:cd4007" Type: Mos1
Warning: Multiple definitions of model "fa2:fa_carry:inverter3:cd4007ube" Type: Mos1
Warning: Multiple definitions of model "fa2:fa_carry:inverter3:cd4007" Type: Mos1
Warning: Multiple definitions of model "fa2:fa_carry:inverter2:cd4007ube" Type: Mos1
Warning: Multiple definitions of model "fa2:fa_carry:inverter2:cd4007" Type: Mos1
Warning: Multiple definitions of model "fa2:fa_carry:inverter1:cd4007ube" Type: Mos1
Warning: Multiple definitions of model "fa2:fa_carry:inverter1:cd4007" Type: Mos1
Warning: Multiple definitions of model "fa2:fa_sum:ha_sum2:xor:x3:inverter:cd4007ube" Type: Mos1
Warning: Multiple definitions of model "fa2:fa_sum:ha_sum2:xor:x3:inverter:cd4007" Type: Mos1
Warning: Multiple definitions of model "fa2:fa_sum:ha_sum2:xor:x1:inverter:cd4007ube" Type: Mos1
Warning: Multiple definitions of model "fa2:fa_sum:ha_sum2:xor:x1:inverter:cd4007" Type: Mos1
Warning: Multiple definitions of model "fa2:fa_sum:ha_sum1:xor:x3:inverter:cd4007ube" Type: Mos1
Warning: Multiple definitions of model "fa2:fa_sum:ha_sum1:xor:x3:inverter:cd4007" Type: Mos1
Warning: Multiple definitions of model "fa2:fa_sum:ha_sum1:xor:x1:inverter:cd4007ube" Type: Mos1
Warning: Multiple definitions of model "fa2:fa_sum:ha_sum1:xor:x1:inverter:cd4007" Type: Mos1
Warning: Multiple definitions of model "fa1:fa_carry:inverter4:cd4007ube" Type: Mos1
Warning: Multiple definitions of model "fa1:fa_carry:inverter4:cd4007" Type: Mos1
Warning: Multiple definitions of model "fa1:fa_carry:ha_sum2:xor:x3:inverter:cd4007ube" Type: Mos1
Warning: Multiple definitions of model "fa1:fa_carry:ha_sum2:xor:x3:inverter:cd4007" Type: Mos1
Warning: Multiple definitions of model "fa1:fa_carry:ha_sum2:xor:x1:inverter:cd4007ube" Type: Mos1
Warning: Multiple definitions of model "fa1:fa_carry:ha_sum2:xor:x1:inverter:cd4007" Type: Mos1
Warning: Multiple definitions of model "fa1:fa_carry:ha_sum1:xor:x3:inverter:cd4007ube" Type: Mos1
Warning: Multiple definitions of model "fa1:fa_carry:ha_sum1:xor:x3:inverter:cd4007" Type: Mos1
Warning: Multiple definitions of model "fa1:fa_carry:ha_sum1:xor:x1:inverter:cd4007ube" Type: Mos1
Warning: Multiple definitions of model "fa1:fa_carry:ha_sum1:xor:x1:inverter:cd4007" Type: Mos1
Warning: Multiple definitions of model "fa1:fa_carry:or3:inverter:cd4007ube" Type: Mos1
Warning: Multiple definitions of model "fa1:fa_carry:or3:inverter:cd4007" Type: Mos1
Warning: Multiple definitions of model "fa1:fa_carry:or2:inverter:cd4007ube" Type: Mos1
Warning: Multiple definitions of model "fa1:fa_carry:or2:inverter:cd4007" Type: Mos1
Warning: Multiple definitions of model "fa1:fa_carry:or1:inverter:cd4007ube" Type: Mos1
Warning: Multiple definitions of model "fa1:fa_carry:or1:inverter:cd4007" Type: Mos1
Warning: Multiple definitions of model "fa1:fa_carry:inverter3:cd4007ube" Type: Mos1
Warning: Multiple definitions of model "fa1:fa_carry:inverter3:cd4007" Type: Mos1
Warning: Multiple definitions of model "fa1:fa_carry:inverter2:cd4007ube" Type: Mos1
Warning: Multiple definitions of model "fa1:fa_carry:inverter2:cd4007" Type: Mos1
Warning: Multiple definitions of model "fa1:fa_carry:inverter1:cd4007ube" Type: Mos1
Warning: Multiple definitions of model "fa1:fa_carry:inverter1:cd4007" Type: Mos1
Warning: Multiple definitions of model "fa1:fa_sum:ha_sum2:xor:x3:inverter:cd4007ube" Type: Mos1
Warning: Multiple definitions of model "fa1:fa_sum:ha_sum2:xor:x3:inverter:cd4007" Type: Mos1
Warning: Multiple definitions of model "fa1:fa_sum:ha_sum2:xor:x1:inverter:cd4007ube" Type: Mos1
Warning: Multiple definitions of model "fa1:fa_sum:ha_sum2:xor:x1:inverter:cd4007" Type: Mos1
Warning: Multiple definitions of model "fa1:fa_sum:ha_sum1:xor:x3:inverter:cd4007ube" Type: Mos1
Warning: Multiple definitions of model "fa1:fa_sum:ha_sum1:xor:x3:inverter:cd4007" Type: Mos1
Warning: Multiple definitions of model "fa1:fa_sum:ha_sum1:xor:x1:inverter:cd4007ube" Type: Mos1
Warning: Multiple definitions of model "fa1:fa_sum:ha_sum1:xor:x1:inverter:cd4007" Type: Mos1
Ignoring BSIM parameter XL
Ignoring BSIM parameter XW
Ignoring BSIM parameter XL
Ignoring BSIM parameter XW
Ignoring BSIM parameter XL
Ignoring BSIM parameter XW
Ignoring BSIM parameter XL
Ignoring BSIM parameter XW
Ignoring BSIM parameter XL
Ignoring BSIM parameter XW
Ignoring BSIM parameter XL
Ignoring BSIM parameter XW
Ignoring BSIM parameter XL
Ignoring BSIM parameter XW
Ignoring BSIM parameter XL
Ignoring BSIM parameter XW
Ignoring BSIM parameter XL
Ignoring BSIM parameter XW
Ignoring BSIM parameter XL
Ignoring BSIM parameter XW
Ignoring BSIM parameter XL
Ignoring BSIM parameter XW
Ignoring BSIM parameter XL
Ignoring BSIM parameter XW
Ignoring BSIM parameter XL
Ignoring BSIM parameter XW
Ignoring BSIM parameter XL
Ignoring BSIM parameter XW
Ignoring BSIM parameter XL
Ignoring BSIM parameter XW
Ignoring BSIM parameter XL
Ignoring BSIM parameter XW
Ignoring BSIM parameter XL
Ignoring BSIM parameter XW
Ignoring BSIM parameter XL
Ignoring BSIM parameter XW
Ignoring BSIM parameter XL
Ignoring BSIM parameter XW
Ignoring BSIM parameter XL
Ignoring BSIM parameter XW
Ignoring BSIM parameter XL
Ignoring BSIM parameter XW
Ignoring BSIM parameter XL
Ignoring BSIM parameter XW
Ignoring BSIM parameter XL
Ignoring BSIM parameter XW
Ignoring BSIM parameter XL
Ignoring BSIM parameter XW
Ignoring BSIM parameter XL
Ignoring BSIM parameter XW
Ignoring BSIM parameter XL
Ignoring BSIM parameter XW
Ignoring BSIM parameter XL
Ignoring BSIM parameter XW
Ignoring BSIM parameter XL
Ignoring BSIM parameter XW
Ignoring BSIM parameter XL
Ignoring BSIM parameter XW
Ignoring BSIM parameter XL
Ignoring BSIM parameter XW
Ignoring BSIM parameter XL
Ignoring BSIM parameter XW
Ignoring BSIM parameter XL
Ignoring BSIM parameter XW
Ignoring BSIM parameter XL
Ignoring BSIM parameter XW
Ignoring BSIM parameter XL
Ignoring BSIM parameter XW
Ignoring BSIM parameter XL
Ignoring BSIM parameter XW
Ignoring BSIM parameter XL
Ignoring BSIM parameter XW
Ignoring BSIM parameter XL
Ignoring BSIM parameter XW
Ignoring BSIM parameter XL
Ignoring BSIM parameter XW
Ignoring BSIM parameter XL
Ignoring BSIM parameter XW
Ignoring BSIM parameter XL
Ignoring BSIM parameter XW
Ignoring BSIM parameter XL
Ignoring BSIM parameter XW
Ignoring BSIM parameter XL
Ignoring BSIM parameter XW
Ignoring BSIM parameter XL
Ignoring BSIM parameter XW
Ignoring BSIM parameter XL
Ignoring BSIM parameter XW
Ignoring BSIM parameter XL
Ignoring BSIM parameter XW
Ignoring BSIM parameter XL
Ignoring BSIM parameter XW
Ignoring BSIM parameter XL
Ignoring BSIM parameter XW
Ignoring BSIM parameter XL
Ignoring BSIM parameter XW
Ignoring BSIM parameter XL
Ignoring BSIM parameter XW
Ignoring BSIM parameter XL
Ignoring BSIM parameter XW
Ignoring BSIM parameter XL
Ignoring BSIM parameter XW
Ignoring BSIM parameter XL
Ignoring BSIM parameter XW
Ignoring BSIM parameter XL
Ignoring BSIM parameter XW
Ignoring BSIM parameter XL
Ignoring BSIM parameter XW
Ignoring BSIM parameter XL
Ignoring BSIM parameter XW
Ignoring BSIM parameter XL
Ignoring BSIM parameter XW
Ignoring BSIM parameter XL
Ignoring BSIM parameter XW
Ignoring BSIM parameter XL
Ignoring BSIM parameter XW
Ignoring BSIM parameter XL
Ignoring BSIM parameter XW
Ignoring BSIM parameter XL
Ignoring BSIM parameter XW
Ignoring BSIM parameter XL
Ignoring BSIM parameter XW
Ignoring BSIM parameter XL
Ignoring BSIM parameter XW
Ignoring BSIM parameter XL
Ignoring BSIM parameter XW
Ignoring BSIM parameter XL
Ignoring BSIM parameter XW
Ignoring BSIM parameter XL
Ignoring BSIM parameter XW
Ignoring BSIM parameter XL
Ignoring BSIM parameter XW
Ignoring BSIM parameter XL
Ignoring BSIM parameter XW
Ignoring BSIM parameter XL
Ignoring BSIM parameter XW
Ignoring BSIM parameter XL
Ignoring BSIM parameter XW
Ignoring BSIM parameter XL
Ignoring BSIM parameter XW
Ignoring BSIM parameter XL
Ignoring BSIM parameter XW
Ignoring BSIM parameter XL
Ignoring BSIM parameter XW
Ignoring BSIM parameter XL
Ignoring BSIM parameter XW
Ignoring BSIM parameter XL
Ignoring BSIM parameter XW
Ignoring BSIM parameter XL
Ignoring BSIM parameter XW
Ignoring BSIM parameter XL
Ignoring BSIM parameter XW
Ignoring BSIM parameter XL
Ignoring BSIM parameter XW
Ignoring BSIM parameter XL
Ignoring BSIM parameter XW
Ignoring BSIM parameter XL
Ignoring BSIM parameter XW
Ignoring BSIM parameter XL
Ignoring BSIM parameter XW
Ignoring BSIM parameter XL
Ignoring BSIM parameter XW
Ignoring BSIM parameter XL
Ignoring BSIM parameter XW
Ignoring BSIM parameter XL
Ignoring BSIM parameter XW
Ignoring BSIM parameter XL
Ignoring BSIM parameter XW
Ignoring BSIM parameter XL
Ignoring BSIM parameter XW
Ignoring BSIM parameter XL
Ignoring BSIM parameter XW
Ignoring BSIM parameter XL
Ignoring BSIM parameter XW
Ignoring BSIM parameter XL
Ignoring BSIM parameter XW
Ignoring BSIM parameter XL
Ignoring BSIM parameter XW
Ignoring BSIM parameter XL
Ignoring BSIM parameter XW
Ignoring BSIM parameter XL
Ignoring BSIM parameter XW
Ignoring BSIM parameter XL
Ignoring BSIM parameter XW
Ignoring BSIM parameter XL
Ignoring BSIM parameter XW
Ignoring BSIM parameter XL
Ignoring BSIM parameter XW
Ignoring BSIM parameter XL
Ignoring BSIM parameter XW
Ignoring BSIM parameter XL
Ignoring BSIM parameter XW
Ignoring BSIM parameter XL
Ignoring BSIM parameter XW
Ignoring BSIM parameter XL
Ignoring BSIM parameter XW
Ignoring BSIM parameter XL
Ignoring BSIM parameter XW
Ignoring BSIM parameter XL
Ignoring BSIM parameter XW
Ignoring BSIM parameter XL
Ignoring BSIM parameter XW
Ignoring BSIM parameter XL
Ignoring BSIM parameter XW
Ignoring BSIM parameter XL
Ignoring BSIM parameter XW
Ignoring BSIM parameter XL
Ignoring BSIM parameter XW
Ignoring BSIM parameter XL
Ignoring BSIM parameter XW
Ignoring BSIM parameter XL
Ignoring BSIM parameter XW
Ignoring BSIM parameter XL
Ignoring BSIM parameter XW
Ignoring BSIM parameter XL
Ignoring BSIM parameter XW
Ignoring BSIM parameter XL
Ignoring BSIM parameter XW
Ignoring BSIM parameter XL
Ignoring BSIM parameter XW
Ignoring BSIM parameter XL
Ignoring BSIM parameter XW
Ignoring BSIM parameter XL
Ignoring BSIM parameter XW
Ignoring BSIM parameter XL
Ignoring BSIM parameter XW
Ignoring BSIM parameter XL
Ignoring BSIM parameter XW
Ignoring BSIM parameter XL
Ignoring BSIM parameter XW
Ignoring BSIM parameter XL
Ignoring BSIM parameter XW
Ignoring BSIM parameter XL
Ignoring BSIM parameter XW
Ignoring BSIM parameter XL
Ignoring BSIM parameter XW
Ignoring BSIM parameter XL
Ignoring BSIM parameter XW
Ignoring BSIM parameter XL
Ignoring BSIM parameter XW
Ignoring BSIM parameter XL
Ignoring BSIM parameter XW
Ignoring BSIM parameter XL
Ignoring BSIM parameter XW
Warning: Pd = 0 is less than W.
Warning: Ps = 0 is less than W.
Warning: Pd = 0 is less than W.
Warning: Ps = 0 is less than W.
Warning: Pd = 0 is less than W.
Warning: Ps = 0 is less than W.
Warning: Pd = 0 is less than W.
Warning: Ps = 0 is less than W.
Warning: Pd = 0 is less than W.
Warning: Ps = 0 is less than W.
Warning: Pd = 0 is less than W.
Warning: Ps = 0 is less than W.
Warning: Pd = 0 is less than W.
Warning: Ps = 0 is less than W.
Warning: Pd = 0 is less than W.
Warning: Ps = 0 is less than W.
Warning: Pd = 0 is less than W.
Warning: Ps = 0 is less than W.
Warning: Pd = 0 is less than W.
Warning: Ps = 0 is less than W.
Warning: Pd = 0 is less than W.
Warning: Ps = 0 is less than W.
Warning: Pd = 0 is less than W.
Warning: Ps = 0 is less than W.
Warning: Pd = 0 is less than W.
Warning: Ps = 0 is less than W.
Warning: Pd = 0 is less than W.
Warning: Ps = 0 is less than W.
Warning: Pd = 0 is less than W.
Warning: Ps = 0 is less than W.
Warning: Pd = 0 is less than W.
Warning: Ps = 0 is less than W.
Warning: Pd = 0 is less than W.
Warning: Ps = 0 is less than W.
Warning: Pd = 0 is less than W.
Warning: Ps = 0 is less than W.
Warning: Pd = 0 is less than W.
Warning: Ps = 0 is less than W.
Warning: Pd = 0 is less than W.
Warning: Ps = 0 is less than W.
Warning: Pd = 0 is less than W.
Warning: Ps = 0 is less than W.
Warning: Pd = 0 is less than W.
Warning: Ps = 0 is less than W.
Warning: Pd = 0 is less than W.
Warning: Ps = 0 is less than W.
Warning: Pd = 0 is less than W.
Warning: Ps = 0 is less than W.
Warning: Pd = 0 is less than W.
Warning: Ps = 0 is less than W.
Warning: Pd = 0 is less than W.
Warning: Ps = 0 is less than W.
Warning: Pd = 0 is less than W.
Warning: Ps = 0 is less than W.
Warning: Pd = 0 is less than W.
Warning: Ps = 0 is less than W.
Warning: Pd = 0 is less than W.
Warning: Ps = 0 is less than W.
Warning: Pd = 0 is less than W.
Warning: Ps = 0 is less than W.
Warning: Pd = 0 is less than W.
Warning: Ps = 0 is less than W.
Warning: Pd = 0 is less than W.
Warning: Ps = 0 is less than W.
Warning: Pd = 0 is less than W.
Warning: Ps = 0 is less than W.
Warning: Pd = 0 is less than W.
Warning: Ps = 0 is less than W.
Warning: Pd = 0 is less than W.
Warning: Ps = 0 is less than W.
Warning: Pd = 0 is less than W.
Warning: Ps = 0 is less than W.
Warning: Pd = 0 is less than W.
Warning: Ps = 0 is less than W.
Warning: Pd = 0 is less than W.
Warning: Ps = 0 is less than W.
Warning: Pd = 0 is less than W.
Warning: Ps = 0 is less than W.
Warning: Pd = 0 is less than W.
Warning: Ps = 0 is less than W.
Warning: Pd = 0 is less than W.
Warning: Ps = 0 is less than W.
Warning: Pd = 0 is less than W.
Warning: Ps = 0 is less than W.
Warning: Pd = 0 is less than W.
Warning: Ps = 0 is less than W.
Warning: Pd = 0 is less than W.
Warning: Ps = 0 is less than W.
Warning: Pd = 0 is less than W.
Warning: Ps = 0 is less than W.
Warning: Pd = 0 is less than W.
Warning: Ps = 0 is less than W.
Warning: Pd = 0 is less than W.
Warning: Ps = 0 is less than W.
Warning: Pd = 0 is less than W.
Warning: Ps = 0 is less than W.
Warning: Pd = 0 is less than W.
Warning: Ps = 0 is less than W.
Warning: Pd = 0 is less than W.
Warning: Ps = 0 is less than W.
Warning: Pd = 0 is less than W.
Warning: Ps = 0 is less than W.
Warning: Pd = 0 is less than W.
Warning: Ps = 0 is less than W.
Warning: Pd = 0 is less than W.
Warning: Ps = 0 is less than W.
Warning: Pd = 0 is less than W.
Warning: Ps = 0 is less than W.
Warning: Pd = 0 is less than W.
Warning: Ps = 0 is less than W.
Warning: Pd = 0 is less than W.
Warning: Ps = 0 is less than W.
Warning: Pd = 0 is less than W.
Warning: Ps = 0 is less than W.
Warning: Pd = 0 is less than W.
Warning: Ps = 0 is less than W.
Warning: Pd = 0 is less than W.
Warning: Ps = 0 is less than W.
Warning: Pd = 0 is less than W.
Warning: Ps = 0 is less than W.
Warning: Pd = 0 is less than W.
Warning: Ps = 0 is less than W.
Warning: Pd = 0 is less than W.
Warning: Ps = 0 is less than W.
Warning: Pd = 0 is less than W.
Warning: Ps = 0 is less than W.
Warning: Pd = 0 is less than W.
Warning: Ps = 0 is less than W.
Warning: Pd = 0 is less than W.
Warning: Ps = 0 is less than W.
Warning: Pd = 0 is less than W.
Warning: Ps = 0 is less than W.
Warning: Pd = 0 is less than W.
Warning: Ps = 0 is less than W.
Warning: Pd = 0 is less than W.
Warning: Ps = 0 is less than W.
Warning: Pd = 0 is less than W.
Warning: Ps = 0 is less than W.
Warning: Pd = 0 is less than W.
Warning: Ps = 0 is less than W.
Warning: Pd = 0 is less than W.
Warning: Ps = 0 is less than W.
Warning: Pd = 0 is less than W.
Warning: Ps = 0 is less than W.
Warning: Pd = 0 is less than W.
Warning: Ps = 0 is less than W.
Warning: Pd = 0 is less than W.
Warning: Ps = 0 is less than W.
Warning: Pd = 0 is less than W.
Warning: Ps = 0 is less than W.
Warning: Pd = 0 is less than W.
Warning: Ps = 0 is less than W.
Warning: Pd = 0 is less than W.
Warning: Ps = 0 is less than W.
Warning: Pd = 0 is less than W.
Warning: Ps = 0 is less than W.
Warning: Pd = 0 is less than W.
Warning: Ps = 0 is less than W.
Warning: Pd = 0 is less than W.
Warning: Ps = 0 is less than W.
Warning: Pd = 0 is less than W.
Warning: Ps = 0 is less than W.
Warning: Pd = 0 is less than W.
Warning: Ps = 0 is less than W.
Warning: Pd = 0 is less than W.
Warning: Ps = 0 is less than W.
Warning: Pd = 0 is less than W.
Warning: Ps = 0 is less than W.
Warning: Pd = 0 is less than W.
Warning: Ps = 0 is less than W.
Warning: Pd = 0 is less than W.
Warning: Ps = 0 is less than W.
Warning: Pd = 0 is less than W.
Warning: Ps = 0 is less than W.
Warning: Pd = 0 is less than W.
Warning: Ps = 0 is less than W.
Warning: Pd = 0 is less than W.
Warning: Ps = 0 is less than W.
Warning: Pd = 0 is less than W.
Warning: Ps = 0 is less than W.
Warning: Pd = 0 is less than W.
Warning: Ps = 0 is less than W.
Warning: Pd = 0 is less than W.
Warning: Ps = 0 is less than W.
Warning: Pd = 0 is less than W.
Warning: Ps = 0 is less than W.
Warning: Pd = 0 is less than W.
Warning: Ps = 0 is less than W.
Warning: Pd = 0 is less than W.
Warning: Ps = 0 is less than W.
Warning: Pd = 0 is less than W.
Warning: Ps = 0 is less than W.
Warning: Pd = 0 is less than W.
Warning: Ps = 0 is less than W.
Warning: Pd = 0 is less than W.
Warning: Ps = 0 is less than W.
Warning: Pd = 0 is less than W.
Warning: Ps = 0 is less than W.
Warning: Pd = 0 is less than W.
Warning: Ps = 0 is less than W.
Warning: Pd = 0 is less than W.
Warning: Ps = 0 is less than W.
Warning: Pd = 0 is less than W.
Warning: Ps = 0 is less than W.
Warning: Pd = 0 is less than W.
Warning: Ps = 0 is less than W.
Warning: Pd = 0 is less than W.
Warning: Ps = 0 is less than W.
Warning: Pd = 0 is less than W.
Warning: Ps = 0 is less than W.
Warning: Pd = 0 is less than W.
Warning: Ps = 0 is less than W.
Warning: Pd = 0 is less than W.
Warning: Ps = 0 is less than W.
Warning: Pd = 0 is less than W.
Warning: Ps = 0 is less than W.
Warning: Pd = 0 is less than W.
Warning: Ps = 0 is less than W.
Warning: Pd = 0 is less than W.
Warning: Ps = 0 is less than W.
Warning: Pd = 0 is less than W.
Warning: Ps = 0 is less than W.
Warning: Pd = 0 is less than W.
Warning: Ps = 0 is less than W.
Warning: Pd = 0 is less than W.
Warning: Ps = 0 is less than W.
Warning: Pd = 0 is less than W.
Warning: Ps = 0 is less than W.
Warning: Pd = 0 is less than W.
Warning: Ps = 0 is less than W.
Warning: Pd = 0 is less than W.
Warning: Ps = 0 is less than W.
Warning: Pd = 0 is less than W.
Warning: Ps = 0 is less than W.
Warning: Pd = 0 is less than W.
Warning: Ps = 0 is less than W.
Warning: Pd = 0 is less than W.
Warning: Ps = 0 is less than W.
Warning: Pd = 0 is less than W.
Warning: Ps = 0 is less than W.
Warning: Pd = 0 is less than W.
Warning: Ps = 0 is less than W.
Warning: Pd = 0 is less than W.
Warning: Ps = 0 is less than W.
Direct Newton iteration failed to find .op point.  (Use ".option noopiter" to skip.)
Starting Gmin stepping
Gmin = 10
Gmin = 1.07374
Gmin = 0.115292
Gmin = 0.0123794
Gmin = 0.00132923
Gmin = 0.000142725
Gmin = 1.5325e-005
Gmin = 1.6455e-006
Gmin = 1.76685e-007
Gmin = 1.89714e-008
Gmin = 2.03704e-009
Gmin = 2.18725e-010
Gmin = 2.34854e-011
Gmin = 2.52173e-012
Gmin = 2.70769e-013
Gmin = 0
Gmin stepping succeeded in finding the operating point.

Changing Tseed to 7.8125e-010
Changing Tseed to 7.8125e-012
Changing Tseed to 7.8125e-009
Changing Tseed to 7.8125e-013

Date: Tue Feb 02 16:34:35 2021
Total elapsed time: 6.769 seconds.

tnom = 27
temp = 27
method = modified trap
totiter = 48807
traniter = 48378
tranpoints = 13023
accept = 9483
rejected = 3536
matrix size = 198
fillins = 260
solver = Normal
Thread vector: 149.3/93.3[4] 35.6/23.8[4] 12.6/12.2[1] 1.3/2.5[1]  2592/500
Matrix Compiler1: 38.47 KB object code size  9.8/6.4/[1.8]
Matrix Compiler2: 29.04 KB object code size  5.3/4.3/[1.8]

