Circuit: * C:\Users\RJ\Documents\LTspiceXVII\array_multiplier.asc

Warning: Multiple definitions of model "cd4007ube" Type: Mos1
Warning: Multiple definitions of model "cd4007" Type: Mos1
Warning: Multiple definitions of model "fa8:fa_carry:inverter4:cd4007ube" Type: Mos1
Warning: Multiple definitions of model "fa8:fa_carry:inverter4:cd4007" Type: Mos1
Warning: Multiple definitions of model "fa8:fa_carry:ha_sum2:xor:x3:inverter:cd4007ube" Type: Mos1
Warning: Multiple definitions of model "fa8:fa_carry:ha_sum2:xor:x3:inverter:cd4007" Type: Mos1
Warning: Multiple definitions of model "fa8:fa_carry:ha_sum2:xor:x1:inverter:cd4007ube" Type: Mos1
Warning: Multiple definitions of model "fa8:fa_carry:ha_sum2:xor:x1:inverter:cd4007" Type: Mos1
Warning: Multiple definitions of model "fa8:fa_carry:ha_sum1:xor:x3:inverter:cd4007ube" Type: Mos1
Warning: Multiple definitions of model "fa8:fa_carry:ha_sum1:xor:x3:inverter:cd4007" Type: Mos1
Warning: Multiple definitions of model "fa8:fa_carry:ha_sum1:xor:x1:inverter:cd4007ube" Type: Mos1
Warning: Multiple definitions of model "fa8:fa_carry:ha_sum1:xor:x1:inverter:cd4007" Type: Mos1
Warning: Multiple definitions of model "fa8:fa_carry:or3:inverter:cd4007ube" Type: Mos1
Warning: Multiple definitions of model "fa8:fa_carry:or3:inverter:cd4007" Type: Mos1
Warning: Multiple definitions of model "fa8:fa_carry:or2:inverter:cd4007ube" Type: Mos1
Warning: Multiple definitions of model "fa8:fa_carry:or2:inverter:cd4007" Type: Mos1
Warning: Multiple definitions of model "fa8:fa_carry:or1:inverter:cd4007ube" Type: Mos1
Warning: Multiple definitions of model "fa8:fa_carry:or1:inverter:cd4007" Type: Mos1
Warning: Multiple definitions of model "fa8:fa_carry:inverter3:cd4007ube" Type: Mos1
Warning: Multiple definitions of model "fa8:fa_carry:inverter3:cd4007" Type: Mos1
Warning: Multiple definitions of model "fa8:fa_carry:inverter2:cd4007ube" Type: Mos1
Warning: Multiple definitions of model "fa8:fa_carry:inverter2:cd4007" Type: Mos1
Warning: Multiple definitions of model "fa8:fa_carry:inverter1:cd4007ube" Type: Mos1
Warning: Multiple definitions of model "fa8:fa_carry:inverter1:cd4007" Type: Mos1
Warning: Multiple definitions of model "fa8:fa_sum:ha_sum2:xor:x3:inverter:cd4007ube" Type: Mos1
Warning: Multiple definitions of model "fa8:fa_sum:ha_sum2:xor:x3:inverter:cd4007" Type: Mos1
Warning: Multiple definitions of model "fa8:fa_sum:ha_sum2:xor:x1:inverter:cd4007ube" Type: Mos1
Warning: Multiple definitions of model "fa8:fa_sum:ha_sum2:xor:x1:inverter:cd4007" Type: Mos1
Warning: Multiple definitions of model "fa8:fa_sum:ha_sum1:xor:x3:inverter:cd4007ube" Type: Mos1
Warning: Multiple definitions of model "fa8:fa_sum:ha_sum1:xor:x3:inverter:cd4007" Type: Mos1
Warning: Multiple definitions of model "fa8:fa_sum:ha_sum1:xor:x1:inverter:cd4007ube" Type: Mos1
Warning: Multiple definitions of model "fa8:fa_sum:ha_sum1:xor:x1:inverter:cd4007" Type: Mos1
Warning: Multiple definitions of model "fa7:fa_carry:inverter4:cd4007ube" Type: Mos1
Warning: Multiple definitions of model "fa7:fa_carry:inverter4:cd4007" Type: Mos1
Warning: Multiple definitions of model "fa7:fa_carry:ha_sum2:xor:x3:inverter:cd4007ube" Type: Mos1
Warning: Multiple definitions of model "fa7:fa_carry:ha_sum2:xor:x3:inverter:cd4007" Type: Mos1
Warning: Multiple definitions of model "fa7:fa_carry:ha_sum2:xor:x1:inverter:cd4007ube" Type: Mos1
Warning: Multiple definitions of model "fa7:fa_carry:ha_sum2:xor:x1:inverter:cd4007" Type: Mos1
Warning: Multiple definitions of model "fa7:fa_carry:ha_sum1:xor:x3:inverter:cd4007ube" Type: Mos1
Warning: Multiple definitions of model "fa7:fa_carry:ha_sum1:xor:x3:inverter:cd4007" Type: Mos1
Warning: Multiple definitions of model "fa7:fa_carry:ha_sum1:xor:x1:inverter:cd4007ube" Type: Mos1
Warning: Multiple definitions of model "fa7:fa_carry:ha_sum1:xor:x1:inverter:cd4007" Type: Mos1
Warning: Multiple definitions of model "fa7:fa_carry:or3:inverter:cd4007ube" Type: Mos1
Warning: Multiple definitions of model "fa7:fa_carry:or3:inverter:cd4007" Type: Mos1
Warning: Multiple definitions of model "fa7:fa_carry:or2:inverter:cd4007ube" Type: Mos1
Warning: Multiple definitions of model "fa7:fa_carry:or2:inverter:cd4007" Type: Mos1
Warning: Multiple definitions of model "fa7:fa_carry:or1:inverter:cd4007ube" Type: Mos1
Warning: Multiple definitions of model "fa7:fa_carry:or1:inverter:cd4007" Type: Mos1
Warning: Multiple definitions of model "fa7:fa_carry:inverter3:cd4007ube" Type: Mos1
Warning: Multiple definitions of model "fa7:fa_carry:inverter3:cd4007" Type: Mos1
Warning: Multiple definitions of model "fa7:fa_carry:inverter2:cd4007ube" Type: Mos1
Warning: Multiple definitions of model "fa7:fa_carry:inverter2:cd4007" Type: Mos1
Warning: Multiple definitions of model "fa7:fa_carry:inverter1:cd4007ube" Type: Mos1
Warning: Multiple definitions of model "fa7:fa_carry:inverter1:cd4007" Type: Mos1
Warning: Multiple definitions of model "fa7:fa_sum:ha_sum2:xor:x3:inverter:cd4007ube" Type: Mos1
Warning: Multiple definitions of model "fa7:fa_sum:ha_sum2:xor:x3:inverter:cd4007" Type: Mos1
Warning: Multiple definitions of model "fa7:fa_sum:ha_sum2:xor:x1:inverter:cd4007ube" Type: Mos1
Warning: Multiple definitions of model "fa7:fa_sum:ha_sum2:xor:x1:inverter:cd4007" Type: Mos1
Warning: Multiple definitions of model "fa7:fa_sum:ha_sum1:xor:x3:inverter:cd4007ube" Type: Mos1
Warning: Multiple definitions of model "fa7:fa_sum:ha_sum1:xor:x3:inverter:cd4007" Type: Mos1
Warning: Multiple definitions of model "fa7:fa_sum:ha_sum1:xor:x1:inverter:cd4007ube" Type: Mos1
Warning: Multiple definitions of model "fa7:fa_sum:ha_sum1:xor:x1:inverter:cd4007" Type: Mos1
Warning: Multiple definitions of model "fa6:fa_carry:inverter4:cd4007ube" Type: Mos1
Warning: Multiple definitions of model "fa6:fa_carry:inverter4:cd4007" Type: Mos1
Warning: Multiple definitions of model "fa6:fa_carry:ha_sum2:xor:x3:inverter:cd4007ube" Type: Mos1
Warning: Multiple definitions of model "fa6:fa_carry:ha_sum2:xor:x3:inverter:cd4007" Type: Mos1
Warning: Multiple definitions of model "fa6:fa_carry:ha_sum2:xor:x1:inverter:cd4007ube" Type: Mos1
Warning: Multiple definitions of model "fa6:fa_carry:ha_sum2:xor:x1:inverter:cd4007" Type: Mos1
Warning: Multiple definitions of model "fa6:fa_carry:ha_sum1:xor:x3:inverter:cd4007ube" Type: Mos1
Warning: Multiple definitions of model "fa6:fa_carry:ha_sum1:xor:x3:inverter:cd4007" Type: Mos1
Warning: Multiple definitions of model "fa6:fa_carry:ha_sum1:xor:x1:inverter:cd4007ube" Type: Mos1
Warning: Multiple definitions of model "fa6:fa_carry:ha_sum1:xor:x1:inverter:cd4007" Type: Mos1
Warning: Multiple definitions of model "fa6:fa_carry:or3:inverter:cd4007ube" Type: Mos1
Warning: Multiple definitions of model "fa6:fa_carry:or3:inverter:cd4007" Type: Mos1
Warning: Multiple definitions of model "fa6:fa_carry:or2:inverter:cd4007ube" Type: Mos1
Warning: Multiple definitions of model "fa6:fa_carry:or2:inverter:cd4007" Type: Mos1
Warning: Multiple definitions of model "fa6:fa_carry:or1:inverter:cd4007ube" Type: Mos1
Warning: Multiple definitions of model "fa6:fa_carry:or1:inverter:cd4007" Type: Mos1
Warning: Multiple definitions of model "fa6:fa_carry:inverter3:cd4007ube" Type: Mos1
Warning: Multiple definitions of model "fa6:fa_carry:inverter3:cd4007" Type: Mos1
Warning: Multiple definitions of model "fa6:fa_carry:inverter2:cd4007ube" Type: Mos1
Warning: Multiple definitions of model "fa6:fa_carry:inverter2:cd4007" Type: Mos1
Warning: Multiple definitions of model "fa6:fa_carry:inverter1:cd4007ube" Type: Mos1
Warning: Multiple definitions of model "fa6:fa_carry:inverter1:cd4007" Type: Mos1
Warning: Multiple definitions of model "fa6:fa_sum:ha_sum2:xor:x3:inverter:cd4007ube" Type: Mos1
Warning: Multiple definitions of model "fa6:fa_sum:ha_sum2:xor:x3:inverter:cd4007" Type: Mos1
Warning: Multiple definitions of model "fa6:fa_sum:ha_sum2:xor:x1:inverter:cd4007ube" Type: Mos1
Warning: Multiple definitions of model "fa6:fa_sum:ha_sum2:xor:x1:inverter:cd4007" Type: Mos1
Warning: Multiple definitions of model "fa6:fa_sum:ha_sum1:xor:x3:inverter:cd4007ube" Type: Mos1
Warning: Multiple definitions of model "fa6:fa_sum:ha_sum1:xor:x3:inverter:cd4007" Type: Mos1
Warning: Multiple definitions of model "fa6:fa_sum:ha_sum1:xor:x1:inverter:cd4007ube" Type: Mos1
Warning: Multiple definitions of model "fa6:fa_sum:ha_sum1:xor:x1:inverter:cd4007" Type: Mos1
Warning: Multiple definitions of model "ha4:ha_carry:and1:inverter:cd4007ube" Type: Mos1
Warning: Multiple definitions of model "ha4:ha_carry:and1:inverter:cd4007" Type: Mos1
Warning: Multiple definitions of model "ha4:ha_sum:xor:x3:inverter:cd4007ube" Type: Mos1
Warning: Multiple definitions of model "ha4:ha_sum:xor:x3:inverter:cd4007" Type: Mos1
Warning: Multiple definitions of model "ha4:ha_sum:xor:x1:inverter:cd4007ube" Type: Mos1
Warning: Multiple definitions of model "ha4:ha_sum:xor:x1:inverter:cd4007" Type: Mos1
Warning: Multiple definitions of model "and16:inverter:cd4007ube" Type: Mos1
Warning: Multiple definitions of model "and16:inverter:cd4007" Type: Mos1
Warning: Multiple definitions of model "and15:inverter:cd4007ube" Type: Mos1
Warning: Multiple definitions of model "and15:inverter:cd4007" Type: Mos1
Warning: Multiple definitions of model "and14:inverter:cd4007ube" Type: Mos1
Warning: Multiple definitions of model "and14:inverter:cd4007" Type: Mos1
Warning: Multiple definitions of model "and13:inverter:cd4007ube" Type: Mos1
Warning: Multiple definitions of model "and13:inverter:cd4007" Type: Mos1
Warning: Multiple definitions of model "ha2:ha_carry:and1:inverter:cd4007ube" Type: Mos1
Warning: Multiple definitions of model "ha2:ha_carry:and1:inverter:cd4007" Type: Mos1
Warning: Multiple definitions of model "ha2:ha_sum:xor:x3:inverter:cd4007ube" Type: Mos1
Warning: Multiple definitions of model "ha2:ha_sum:xor:x3:inverter:cd4007" Type: Mos1
Warning: Multiple definitions of model "ha2:ha_sum:xor:x1:inverter:cd4007ube" Type: Mos1
Warning: Multiple definitions of model "ha2:ha_sum:xor:x1:inverter:cd4007" Type: Mos1
Warning: Multiple definitions of model "and12:inverter:cd4007ube" Type: Mos1
Warning: Multiple definitions of model "and12:inverter:cd4007" Type: Mos1
Warning: Multiple definitions of model "and11:inverter:cd4007ube" Type: Mos1
Warning: Multiple definitions of model "and11:inverter:cd4007" Type: Mos1
Warning: Multiple definitions of model "and10:inverter:cd4007ube" Type: Mos1
Warning: Multiple definitions of model "and10:inverter:cd4007" Type: Mos1
Warning: Multiple definitions of model "and9:inverter:cd4007ube" Type: Mos1
Warning: Multiple definitions of model "and9:inverter:cd4007" Type: Mos1
Warning: Multiple definitions of model "fa5:fa_carry:inverter4:cd4007ube" Type: Mos1
Warning: Multiple definitions of model "fa5:fa_carry:inverter4:cd4007" Type: Mos1
Warning: Multiple definitions of model "fa5:fa_carry:ha_sum2:xor:x3:inverter:cd4007ube" Type: Mos1
Warning: Multiple definitions of model "fa5:fa_carry:ha_sum2:xor:x3:inverter:cd4007" Type: Mos1
Warning: Multiple definitions of model "fa5:fa_carry:ha_sum2:xor:x1:inverter:cd4007ube" Type: Mos1
Warning: Multiple definitions of model "fa5:fa_carry:ha_sum2:xor:x1:inverter:cd4007" Type: Mos1
Warning: Multiple definitions of model "fa5:fa_carry:ha_sum1:xor:x3:inverter:cd4007ube" Type: Mos1
Warning: Multiple definitions of model "fa5:fa_carry:ha_sum1:xor:x3:inverter:cd4007" Type: Mos1
Warning: Multiple definitions of model "fa5:fa_carry:ha_sum1:xor:x1:inverter:cd4007ube" Type: Mos1
Warning: Multiple definitions of model "fa5:fa_carry:ha_sum1:xor:x1:inverter:cd4007" Type: Mos1
Warning: Multiple definitions of model "fa5:fa_carry:or3:inverter:cd4007ube" Type: Mos1
Warning: Multiple definitions of model "fa5:fa_carry:or3:inverter:cd4007" Type: Mos1
Warning: Multiple definitions of model "fa5:fa_carry:or2:inverter:cd4007ube" Type: Mos1
Warning: Multiple definitions of model "fa5:fa_carry:or2:inverter:cd4007" Type: Mos1
Warning: Multiple definitions of model "fa5:fa_carry:or1:inverter:cd4007ube" Type: Mos1
Warning: Multiple definitions of model "fa5:fa_carry:or1:inverter:cd4007" Type: Mos1
Warning: Multiple definitions of model "fa5:fa_carry:inverter3:cd4007ube" Type: Mos1
Warning: Multiple definitions of model "fa5:fa_carry:inverter3:cd4007" Type: Mos1
Warning: Multiple definitions of model "fa5:fa_carry:inverter2:cd4007ube" Type: Mos1
Warning: Multiple definitions of model "fa5:fa_carry:inverter2:cd4007" Type: Mos1
Warning: Multiple definitions of model "fa5:fa_carry:inverter1:cd4007ube" Type: Mos1
Warning: Multiple definitions of model "fa5:fa_carry:inverter1:cd4007" Type: Mos1
Warning: Multiple definitions of model "fa5:fa_sum:ha_sum2:xor:x3:inverter:cd4007ube" Type: Mos1
Warning: Multiple definitions of model "fa5:fa_sum:ha_sum2:xor:x3:inverter:cd4007" Type: Mos1
Warning: Multiple definitions of model "fa5:fa_sum:ha_sum2:xor:x1:inverter:cd4007ube" Type: Mos1
Warning: Multiple definitions of model "fa5:fa_sum:ha_sum2:xor:x1:inverter:cd4007" Type: Mos1
Warning: Multiple definitions of model "fa5:fa_sum:ha_sum1:xor:x3:inverter:cd4007ube" Type: Mos1
Warning: Multiple definitions of model "fa5:fa_sum:ha_sum1:xor:x3:inverter:cd4007" Type: Mos1
Warning: Multiple definitions of model "fa5:fa_sum:ha_sum1:xor:x1:inverter:cd4007ube" Type: Mos1
Warning: Multiple definitions of model "fa5:fa_sum:ha_sum1:xor:x1:inverter:cd4007" Type: Mos1
Warning: Multiple definitions of model "fa4:fa_carry:inverter4:cd4007ube" Type: Mos1
Warning: Multiple definitions of model "fa4:fa_carry:inverter4:cd4007" Type: Mos1
Warning: Multiple definitions of model "fa4:fa_carry:ha_sum2:xor:x3:inverter:cd4007ube" Type: Mos1
Warning: Multiple definitions of model "fa4:fa_carry:ha_sum2:xor:x3:inverter:cd4007" Type: Mos1
Warning: Multiple definitions of model "fa4:fa_carry:ha_sum2:xor:x1:inverter:cd4007ube" Type: Mos1
Warning: Multiple definitions of model "fa4:fa_carry:ha_sum2:xor:x1:inverter:cd4007" Type: Mos1
Warning: Multiple definitions of model "fa4:fa_carry:ha_sum1:xor:x3:inverter:cd4007ube" Type: Mos1
Warning: Multiple definitions of model "fa4:fa_carry:ha_sum1:xor:x3:inverter:cd4007" Type: Mos1
Warning: Multiple definitions of model "fa4:fa_carry:ha_sum1:xor:x1:inverter:cd4007ube" Type: Mos1
Warning: Multiple definitions of model "fa4:fa_carry:ha_sum1:xor:x1:inverter:cd4007" Type: Mos1
Warning: Multiple definitions of model "fa4:fa_carry:or3:inverter:cd4007ube" Type: Mos1
Warning: Multiple definitions of model "fa4:fa_carry:or3:inverter:cd4007" Type: Mos1
Warning: Multiple definitions of model "fa4:fa_carry:or2:inverter:cd4007ube" Type: Mos1
Warning: Multiple definitions of model "fa4:fa_carry:or2:inverter:cd4007" Type: Mos1
Warning: Multiple definitions of model "fa4:fa_carry:or1:inverter:cd4007ube" Type: Mos1
Warning: Multiple definitions of model "fa4:fa_carry:or1:inverter:cd4007" Type: Mos1
Warning: Multiple definitions of model "fa4:fa_carry:inverter3:cd4007ube" Type: Mos1
Warning: Multiple definitions of model "fa4:fa_carry:inverter3:cd4007" Type: Mos1
Warning: Multiple definitions of model "fa4:fa_carry:inverter2:cd4007ube" Type: Mos1
Warning: Multiple definitions of model "fa4:fa_carry:inverter2:cd4007" Type: Mos1
Warning: Multiple definitions of model "fa4:fa_carry:inverter1:cd4007ube" Type: Mos1
Warning: Multiple definitions of model "fa4:fa_carry:inverter1:cd4007" Type: Mos1
Warning: Multiple definitions of model "fa4:fa_sum:ha_sum2:xor:x3:inverter:cd4007ube" Type: Mos1
Warning: Multiple definitions of model "fa4:fa_sum:ha_sum2:xor:x3:inverter:cd4007" Type: Mos1
Warning: Multiple definitions of model "fa4:fa_sum:ha_sum2:xor:x1:inverter:cd4007ube" Type: Mos1
Warning: Multiple definitions of model "fa4:fa_sum:ha_sum2:xor:x1:inverter:cd4007" Type: Mos1
Warning: Multiple definitions of model "fa4:fa_sum:ha_sum1:xor:x3:inverter:cd4007ube" Type: Mos1
Warning: Multiple definitions of model "fa4:fa_sum:ha_sum1:xor:x3:inverter:cd4007" Type: Mos1
Warning: Multiple definitions of model "fa4:fa_sum:ha_sum1:xor:x1:inverter:cd4007ube" Type: Mos1
Warning: Multiple definitions of model "fa4:fa_sum:ha_sum1:xor:x1:inverter:cd4007" Type: Mos1
Warning: Multiple definitions of model "fa3:fa_carry:inverter4:cd4007ube" Type: Mos1
Warning: Multiple definitions of model "fa3:fa_carry:inverter4:cd4007" Type: Mos1
Warning: Multiple definitions of model "fa3:fa_carry:ha_sum2:xor:x3:inverter:cd4007ube" Type: Mos1
Warning: Multiple definitions of model "fa3:fa_carry:ha_sum2:xor:x3:inverter:cd4007" Type: Mos1
Warning: Multiple definitions of model "fa3:fa_carry:ha_sum2:xor:x1:inverter:cd4007ube" Type: Mos1
Warning: Multiple definitions of model "fa3:fa_carry:ha_sum2:xor:x1:inverter:cd4007" Type: Mos1
Warning: Multiple definitions of model "fa3:fa_carry:ha_sum1:xor:x3:inverter:cd4007ube" Type: Mos1
Warning: Multiple definitions of model "fa3:fa_carry:ha_sum1:xor:x3:inverter:cd4007" Type: Mos1
Warning: Multiple definitions of model "fa3:fa_carry:ha_sum1:xor:x1:inverter:cd4007ube" Type: Mos1
Warning: Multiple definitions of model "fa3:fa_carry:ha_sum1:xor:x1:inverter:cd4007" Type: Mos1
Warning: Multiple definitions of model "fa3:fa_carry:or3:inverter:cd4007ube" Type: Mos1
Warning: Multiple definitions of model "fa3:fa_carry:or3:inverter:cd4007" Type: Mos1
Warning: Multiple definitions of model "fa3:fa_carry:or2:inverter:cd4007ube" Type: Mos1
Warning: Multiple definitions of model "fa3:fa_carry:or2:inverter:cd4007" Type: Mos1
Warning: Multiple definitions of model "fa3:fa_carry:or1:inverter:cd4007ube" Type: Mos1
Warning: Multiple definitions of model "fa3:fa_carry:or1:inverter:cd4007" Type: Mos1
Warning: Multiple definitions of model "fa3:fa_carry:inverter3:cd4007ube" Type: Mos1
Warning: Multiple definitions of model "fa3:fa_carry:inverter3:cd4007" Type: Mos1
Warning: Multiple definitions of model "fa3:fa_carry:inverter2:cd4007ube" Type: Mos1
Warning: Multiple definitions of model "fa3:fa_carry:inverter2:cd4007" Type: Mos1
Warning: Multiple definitions of model "fa3:fa_carry:inverter1:cd4007ube" Type: Mos1
Warning: Multiple definitions of model "fa3:fa_carry:inverter1:cd4007" Type: Mos1
Warning: Multiple definitions of model "fa3:fa_sum:ha_sum2:xor:x3:inverter:cd4007ube" Type: Mos1
Warning: Multiple definitions of model "fa3:fa_sum:ha_sum2:xor:x3:inverter:cd4007" Type: Mos1
Warning: Multiple definitions of model "fa3:fa_sum:ha_sum2:xor:x1:inverter:cd4007ube" Type: Mos1
Warning: Multiple definitions of model "fa3:fa_sum:ha_sum2:xor:x1:inverter:cd4007" Type: Mos1
Warning: Multiple definitions of model "fa3:fa_sum:ha_sum1:xor:x3:inverter:cd4007ube" Type: Mos1
Warning: Multiple definitions of model "fa3:fa_sum:ha_sum1:xor:x3:inverter:cd4007" Type: Mos1
Warning: Multiple definitions of model "fa3:fa_sum:ha_sum1:xor:x1:inverter:cd4007ube" Type: Mos1
Warning: Multiple definitions of model "fa3:fa_sum:ha_sum1:xor:x1:inverter:cd4007" Type: Mos1
Warning: Multiple definitions of model "fa2:fa_carry:inverter4:cd4007ube" Type: Mos1
Warning: Multiple definitions of model "fa2:fa_carry:inverter4:cd4007" Type: Mos1
Warning: Multiple definitions of model "fa2:fa_carry:ha_sum2:xor:x3:inverter:cd4007ube" Type: Mos1
Warning: Multiple definitions of model "fa2:fa_carry:ha_sum2:xor:x3:inverter:cd4007" Type: Mos1
Warning: Multiple definitions of model "fa2:fa_carry:ha_sum2:xor:x1:inverter:cd4007ube" Type: Mos1
Warning: Multiple definitions of model "fa2:fa_carry:ha_sum2:xor:x1:inverter:cd4007" Type: Mos1
Warning: Multiple definitions of model "fa2:fa_carry:ha_sum1:xor:x3:inverter:cd4007ube" Type: Mos1
Warning: Multiple definitions of model "fa2:fa_carry:ha_sum1:xor:x3:inverter:cd4007" Type: Mos1
Warning: Multiple definitions of model "fa2:fa_carry:ha_sum1:xor:x1:inverter:cd4007ube" Type: Mos1
Warning: Multiple definitions of model "fa2:fa_carry:ha_sum1:xor:x1:inverter:cd4007" Type: Mos1
Warning: Multiple definitions of model "fa2:fa_carry:or3:inverter:cd4007ube" Type: Mos1
Warning: Multiple definitions of model "fa2:fa_carry:or3:inverter:cd4007" Type: Mos1
Warning: Multiple definitions of model "fa2:fa_carry:or2:inverter:cd4007ube" Type: Mos1
Warning: Multiple definitions of model "fa2:fa_carry:or2:inverter:cd4007" Type: Mos1
Warning: Multiple definitions of model "fa2:fa_carry:or1:inverter:cd4007ube" Type: Mos1
Warning: Multiple definitions of model "fa2:fa_carry:or1:inverter:cd4007" Type: Mos1
Warning: Multiple definitions of model "fa2:fa_carry:inverter3:cd4007ube" Type: Mos1
Warning: Multiple definitions of model "fa2:fa_carry:inverter3:cd4007" Type: Mos1
Warning: Multiple definitions of model "fa2:fa_carry:inverter2:cd4007ube" Type: Mos1
Warning: Multiple definitions of model "fa2:fa_carry:inverter2:cd4007" Type: Mos1
Warning: Multiple definitions of model "fa2:fa_carry:inverter1:cd4007ube" Type: Mos1
Warning: Multiple definitions of model "fa2:fa_carry:inverter1:cd4007" Type: Mos1
Warning: Multiple definitions of model "fa2:fa_sum:ha_sum2:xor:x3:inverter:cd4007ube" Type: Mos1
Warning: Multiple definitions of model "fa2:fa_sum:ha_sum2:xor:x3:inverter:cd4007" Type: Mos1
Warning: Multiple definitions of model "fa2:fa_sum:ha_sum2:xor:x1:inverter:cd4007ube" Type: Mos1
Warning: Multiple definitions of model "fa2:fa_sum:ha_sum2:xor:x1:inverter:cd4007" Type: Mos1
Warning: Multiple definitions of model "fa2:fa_sum:ha_sum1:xor:x3:inverter:cd4007ube" Type: Mos1
Warning: Multiple definitions of model "fa2:fa_sum:ha_sum1:xor:x3:inverter:cd4007" Type: Mos1
Warning: Multiple definitions of model "fa2:fa_sum:ha_sum1:xor:x1:inverter:cd4007ube" Type: Mos1
Warning: Multiple definitions of model "fa2:fa_sum:ha_sum1:xor:x1:inverter:cd4007" Type: Mos1
Warning: Multiple definitions of model "fa1:fa_carry:inverter4:cd4007ube" Type: Mos1
Warning: Multiple definitions of model "fa1:fa_carry:inverter4:cd4007" Type: Mos1
Warning: Multiple definitions of model "fa1:fa_carry:ha_sum2:xor:x3:inverter:cd4007ube" Type: Mos1
Warning: Multiple definitions of model "fa1:fa_carry:ha_sum2:xor:x3:inverter:cd4007" Type: Mos1
Warning: Multiple definitions of model "fa1:fa_carry:ha_sum2:xor:x1:inverter:cd4007ube" Type: Mos1
Warning: Multiple definitions of model "fa1:fa_carry:ha_sum2:xor:x1:inverter:cd4007" Type: Mos1
Warning: Multiple definitions of model "fa1:fa_carry:ha_sum1:xor:x3:inverter:cd4007ube" Type: Mos1
Warning: Multiple definitions of model "fa1:fa_carry:ha_sum1:xor:x3:inverter:cd4007" Type: Mos1
Warning: Multiple definitions of model "fa1:fa_carry:ha_sum1:xor:x1:inverter:cd4007ube" Type: Mos1
Warning: Multiple definitions of model "fa1:fa_carry:ha_sum1:xor:x1:inverter:cd4007" Type: Mos1
Warning: Multiple definitions of model "fa1:fa_carry:or3:inverter:cd4007ube" Type: Mos1
Warning: Multiple definitions of model "fa1:fa_carry:or3:inverter:cd4007" Type: Mos1
Warning: Multiple definitions of model "fa1:fa_carry:or2:inverter:cd4007ube" Type: Mos1
Warning: Multiple definitions of model "fa1:fa_carry:or2:inverter:cd4007" Type: Mos1
Warning: Multiple definitions of model "fa1:fa_carry:or1:inverter:cd4007ube" Type: Mos1
Warning: Multiple definitions of model "fa1:fa_carry:or1:inverter:cd4007" Type: Mos1
Warning: Multiple definitions of model "fa1:fa_carry:inverter3:cd4007ube" Type: Mos1
Warning: Multiple definitions of model "fa1:fa_carry:inverter3:cd4007" Type: Mos1
Warning: Multiple definitions of model "fa1:fa_carry:inverter2:cd4007ube" Type: Mos1
Warning: Multiple definitions of model "fa1:fa_carry:inverter2:cd4007" Type: Mos1
Warning: Multiple definitions of model "fa1:fa_carry:inverter1:cd4007ube" Type: Mos1
Warning: Multiple definitions of model "fa1:fa_carry:inverter1:cd4007" Type: Mos1
Warning: Multiple definitions of model "fa1:fa_sum:ha_sum2:xor:x3:inverter:cd4007ube" Type: Mos1
Warning: Multiple definitions of model "fa1:fa_sum:ha_sum2:xor:x3:inverter:cd4007" Type: Mos1
Warning: Multiple definitions of model "fa1:fa_sum:ha_sum2:xor:x1:inverter:cd4007ube" Type: Mos1
Warning: Multiple definitions of model "fa1:fa_sum:ha_sum2:xor:x1:inverter:cd4007" Type: Mos1
Warning: Multiple definitions of model "fa1:fa_sum:ha_sum1:xor:x3:inverter:cd4007ube" Type: Mos1
Warning: Multiple definitions of model "fa1:fa_sum:ha_sum1:xor:x3:inverter:cd4007" Type: Mos1
Warning: Multiple definitions of model "fa1:fa_sum:ha_sum1:xor:x1:inverter:cd4007ube" Type: Mos1
Warning: Multiple definitions of model "fa1:fa_sum:ha_sum1:xor:x1:inverter:cd4007" Type: Mos1
Warning: Multiple definitions of model "ha3:ha_carry:and1:inverter:cd4007ube" Type: Mos1
Warning: Multiple definitions of model "ha3:ha_carry:and1:inverter:cd4007" Type: Mos1
Warning: Multiple definitions of model "ha3:ha_sum:xor:x3:inverter:cd4007ube" Type: Mos1
Warning: Multiple definitions of model "ha3:ha_sum:xor:x3:inverter:cd4007" Type: Mos1
Warning: Multiple definitions of model "ha3:ha_sum:xor:x1:inverter:cd4007ube" Type: Mos1
Warning: Multiple definitions of model "ha3:ha_sum:xor:x1:inverter:cd4007" Type: Mos1
Warning: Multiple definitions of model "ha1:ha_carry:and1:inverter:cd4007ube" Type: Mos1
Warning: Multiple definitions of model "ha1:ha_carry:and1:inverter:cd4007" Type: Mos1
Warning: Multiple definitions of model "ha1:ha_sum:xor:x3:inverter:cd4007ube" Type: Mos1
Warning: Multiple definitions of model "ha1:ha_sum:xor:x3:inverter:cd4007" Type: Mos1
Warning: Multiple definitions of model "ha1:ha_sum:xor:x1:inverter:cd4007ube" Type: Mos1
Warning: Multiple definitions of model "ha1:ha_sum:xor:x1:inverter:cd4007" Type: Mos1
Warning: Multiple definitions of model "and8:inverter:cd4007ube" Type: Mos1
Warning: Multiple definitions of model "and8:inverter:cd4007" Type: Mos1
Warning: Multiple definitions of model "and7:inverter:cd4007ube" Type: Mos1
Warning: Multiple definitions of model "and7:inverter:cd4007" Type: Mos1
Warning: Multiple definitions of model "and6:inverter:cd4007ube" Type: Mos1
Warning: Multiple definitions of model "and6:inverter:cd4007" Type: Mos1
Warning: Multiple definitions of model "and5:inverter:cd4007ube" Type: Mos1
Warning: Multiple definitions of model "and5:inverter:cd4007" Type: Mos1
Warning: Multiple definitions of model "and4:inverter:cd4007ube" Type: Mos1
Warning: Multiple definitions of model "and4:inverter:cd4007" Type: Mos1
Warning: Multiple definitions of model "and3:inverter:cd4007ube" Type: Mos1
Warning: Multiple definitions of model "and3:inverter:cd4007" Type: Mos1
Warning: Multiple definitions of model "and2:inverter:cd4007ube" Type: Mos1
Warning: Multiple definitions of model "and2:inverter:cd4007" Type: Mos1
Warning: Multiple definitions of model "and1:inverter:cd4007ube" Type: Mos1
Warning: Multiple definitions of model "and1:inverter:cd4007" Type: Mos1
Ignoring BSIM parameter XL
Ignoring BSIM parameter XW
Ignoring BSIM parameter XL
Ignoring BSIM parameter XW
Ignoring BSIM parameter XL
Ignoring BSIM parameter XW
Ignoring BSIM parameter XL
Ignoring BSIM parameter XW
Ignoring BSIM parameter XL
Ignoring BSIM parameter XW
Ignoring BSIM parameter XL
Ignoring BSIM parameter XW
Ignoring BSIM parameter XL
Ignoring BSIM parameter XW
Ignoring BSIM parameter XL
Ignoring BSIM parameter XW
Ignoring BSIM parameter XL
Ignoring BSIM parameter XW
Ignoring BSIM parameter XL
Ignoring BSIM parameter XW
Ignoring BSIM parameter XL
Ignoring BSIM parameter XW
Ignoring BSIM parameter XL
Ignoring BSIM parameter XW
Ignoring BSIM parameter XL
Ignoring BSIM parameter XW
Ignoring BSIM parameter XL
Ignoring BSIM parameter XW
Ignoring BSIM parameter XL
Ignoring BSIM parameter XW
Ignoring BSIM parameter XL
Ignoring BSIM parameter XW
Ignoring BSIM parameter XL
Ignoring BSIM parameter XW
Ignoring BSIM parameter XL
Ignoring BSIM parameter XW
Ignoring BSIM parameter XL
Ignoring BSIM parameter XW
Ignoring BSIM parameter XL
Ignoring BSIM parameter XW
Ignoring BSIM parameter XL
Ignoring BSIM parameter XW
Ignoring BSIM parameter XL
Ignoring BSIM parameter XW
Ignoring BSIM parameter XL
Ignoring BSIM parameter XW
Ignoring BSIM parameter XL
Ignoring BSIM parameter XW
Ignoring BSIM parameter XL
Ignoring BSIM parameter XW
Ignoring BSIM parameter XL
Ignoring BSIM parameter XW
Ignoring BSIM parameter XL
Ignoring BSIM parameter XW
Ignoring BSIM parameter XL
Ignoring BSIM parameter XW
Ignoring BSIM parameter XL
Ignoring BSIM parameter XW
Ignoring BSIM parameter XL
Ignoring BSIM parameter XW
Ignoring BSIM parameter XL
Ignoring BSIM parameter XW
Ignoring BSIM parameter XL
Ignoring BSIM parameter XW
Ignoring BSIM parameter XL
Ignoring BSIM parameter XW
Ignoring BSIM parameter XL
Ignoring BSIM parameter XW
Ignoring BSIM parameter XL
Ignoring BSIM parameter XW
Ignoring BSIM parameter XL
Ignoring BSIM parameter XW
Ignoring BSIM parameter XL
Ignoring BSIM parameter XW
Ignoring BSIM parameter XL
Ignoring BSIM parameter XW
Ignoring BSIM parameter XL
Ignoring BSIM parameter XW
Ignoring BSIM parameter XL
Ignoring BSIM parameter XW
Ignoring BSIM parameter XL
Ignoring BSIM parameter XW
Ignoring BSIM parameter XL
Ignoring BSIM parameter XW
Ignoring BSIM parameter XL
Ignoring BSIM parameter XW
Ignoring BSIM parameter XL
Ignoring BSIM parameter XW
Ignoring BSIM parameter XL
Ignoring BSIM parameter XW
Ignoring BSIM parameter XL
Ignoring BSIM parameter XW
Ignoring BSIM parameter XL
Ignoring BSIM parameter XW
Ignoring BSIM parameter XL
Ignoring BSIM parameter XW
Ignoring BSIM parameter XL
Ignoring BSIM parameter XW
Ignoring BSIM parameter XL
Ignoring BSIM parameter XW
Ignoring BSIM parameter XL
Ignoring BSIM parameter XW
Ignoring BSIM parameter XL
Ignoring BSIM parameter XW
Ignoring BSIM parameter XL
Ignoring BSIM parameter XW
Ignoring BSIM parameter XL
Ignoring BSIM parameter XW
Ignoring BSIM parameter XL
Ignoring BSIM parameter XW
Ignoring BSIM parameter XL
Ignoring BSIM parameter XW
Ignoring BSIM parameter XL
Ignoring BSIM parameter XW
Ignoring BSIM parameter XL
Ignoring BSIM parameter XW
Ignoring BSIM parameter XL
Ignoring BSIM parameter XW
Ignoring BSIM parameter XL
Ignoring BSIM parameter XW
Ignoring BSIM parameter XL
Ignoring BSIM parameter XW
Ignoring BSIM parameter XL
Ignoring BSIM parameter XW
Ignoring BSIM parameter XL
Ignoring BSIM parameter XW
Ignoring BSIM parameter XL
Ignoring BSIM parameter XW
Ignoring BSIM parameter XL
Ignoring BSIM parameter XW
Ignoring BSIM parameter XL
Ignoring BSIM parameter XW
Ignoring BSIM parameter XL
Ignoring BSIM parameter XW
Ignoring BSIM parameter XL
Ignoring BSIM parameter XW
Ignoring BSIM parameter XL
Ignoring BSIM parameter XW
Ignoring BSIM parameter XL
Ignoring BSIM parameter XW
Ignoring BSIM parameter XL
Ignoring BSIM parameter XW
Ignoring BSIM parameter XL
Ignoring BSIM parameter XW
Ignoring BSIM parameter XL
Ignoring BSIM parameter XW
Ignoring BSIM parameter XL
Ignoring BSIM parameter XW
Ignoring BSIM parameter XL
Ignoring BSIM parameter XW
Ignoring BSIM parameter XL
Ignoring BSIM parameter XW
Ignoring BSIM parameter XL
Ignoring BSIM parameter XW
Ignoring BSIM parameter XL
Ignoring BSIM parameter XW
Ignoring BSIM parameter XL
Ignoring BSIM parameter XW
Ignoring BSIM parameter XL
Ignoring BSIM parameter XW
Ignoring BSIM parameter XL
Ignoring BSIM parameter XW
Ignoring BSIM parameter XL
Ignoring BSIM parameter XW
Ignoring BSIM parameter XL
Ignoring BSIM parameter XW
Ignoring BSIM parameter XL
Ignoring BSIM parameter XW
Ignoring BSIM parameter XL
Ignoring BSIM parameter XW
Ignoring BSIM parameter XL
Ignoring BSIM parameter XW
Ignoring BSIM parameter XL
Ignoring BSIM parameter XW
Ignoring BSIM parameter XL
Ignoring BSIM parameter XW
Ignoring BSIM parameter XL
Ignoring BSIM parameter XW
Ignoring BSIM parameter XL
Ignoring BSIM parameter XW
Ignoring BSIM parameter XL
Ignoring BSIM parameter XW
Ignoring BSIM parameter XL
Ignoring BSIM parameter XW
Ignoring BSIM parameter XL
Ignoring BSIM parameter XW
Ignoring BSIM parameter XL
Ignoring BSIM parameter XW
Ignoring BSIM parameter XL
Ignoring BSIM parameter XW
Ignoring BSIM parameter XL
Ignoring BSIM parameter XW
Ignoring BSIM parameter XL
Ignoring BSIM parameter XW
Ignoring BSIM parameter XL
Ignoring BSIM parameter XW
Ignoring BSIM parameter XL
Ignoring BSIM parameter XW
Ignoring BSIM parameter XL
Ignoring BSIM parameter XW
Ignoring BSIM parameter XL
Ignoring BSIM parameter XW
Ignoring BSIM parameter XL
Ignoring BSIM parameter XW
Ignoring BSIM parameter XL
Ignoring BSIM parameter XW
Ignoring BSIM parameter XL
Ignoring BSIM parameter XW
Ignoring BSIM parameter XL
Ignoring BSIM parameter XW
Ignoring BSIM parameter XL
Ignoring BSIM parameter XW
Ignoring BSIM parameter XL
Ignoring BSIM parameter XW
Ignoring BSIM parameter XL
Ignoring BSIM parameter XW
Ignoring BSIM parameter XL
Ignoring BSIM parameter XW
Ignoring BSIM parameter XL
Ignoring BSIM parameter XW
Ignoring BSIM parameter XL
Ignoring BSIM parameter XW
Ignoring BSIM parameter XL
Ignoring BSIM parameter XW
Ignoring BSIM parameter XL
Ignoring BSIM parameter XW
Ignoring BSIM parameter XL
Ignoring BSIM parameter XW
Ignoring BSIM parameter XL
Ignoring BSIM parameter XW
Ignoring BSIM parameter XL
Ignoring BSIM parameter XW
Ignoring BSIM parameter XL
Ignoring BSIM parameter XW
Ignoring BSIM parameter XL
Ignoring BSIM parameter XW
Ignoring BSIM parameter XL
Ignoring BSIM parameter XW
Ignoring BSIM parameter XL
Ignoring BSIM parameter XW
Ignoring BSIM parameter XL
Ignoring BSIM parameter XW
Ignoring BSIM parameter XL
Ignoring BSIM parameter XW
Ignoring BSIM parameter XL
Ignoring BSIM parameter XW
Ignoring BSIM parameter XL
Ignoring BSIM parameter XW
Ignoring BSIM parameter XL
Ignoring BSIM parameter XW
Ignoring BSIM parameter XL
Ignoring BSIM parameter XW
Ignoring BSIM parameter XL
Ignoring BSIM parameter XW
Ignoring BSIM parameter XL
Ignoring BSIM parameter XW
Ignoring BSIM parameter XL
Ignoring BSIM parameter XW
Ignoring BSIM parameter XL
Ignoring BSIM parameter XW
Ignoring BSIM parameter XL
Ignoring BSIM parameter XW
Ignoring BSIM parameter XL
Ignoring BSIM parameter XW
Ignoring BSIM parameter XL
Ignoring BSIM parameter XW
Ignoring BSIM parameter XL
Ignoring BSIM parameter XW
Ignoring BSIM parameter XL
Ignoring BSIM parameter XW
Ignoring BSIM parameter XL
Ignoring BSIM parameter XW
Ignoring BSIM parameter XL
Ignoring BSIM parameter XW
Ignoring BSIM parameter XL
Ignoring BSIM parameter XW
Ignoring BSIM parameter XL
Ignoring BSIM parameter XW
Ignoring BSIM parameter XL
Ignoring BSIM parameter XW
Ignoring BSIM parameter XL
Ignoring BSIM parameter XW
Ignoring BSIM parameter XL
Ignoring BSIM parameter XW
Ignoring BSIM parameter XL
Ignoring BSIM parameter XW
Ignoring BSIM parameter XL
Ignoring BSIM parameter XW
Ignoring BSIM parameter XL
Ignoring BSIM parameter XW
Ignoring BSIM parameter XL
Ignoring BSIM parameter XW
Ignoring BSIM parameter XL
Ignoring BSIM parameter XW
Ignoring BSIM parameter XL
Ignoring BSIM parameter XW
Ignoring BSIM parameter XL
Ignoring BSIM parameter XW
Ignoring BSIM parameter XL
Ignoring BSIM parameter XW
Ignoring BSIM parameter XL
Ignoring BSIM parameter XW
Ignoring BSIM parameter XL
Ignoring BSIM parameter XW
Ignoring BSIM parameter XL
Ignoring BSIM parameter XW
Ignoring BSIM parameter XL
Ignoring BSIM parameter XW
Ignoring BSIM parameter XL
Ignoring BSIM parameter XW
Ignoring BSIM parameter XL
Ignoring BSIM parameter XW
Ignoring BSIM parameter XL
Ignoring BSIM parameter XW
Ignoring BSIM parameter XL
Ignoring BSIM parameter XW
Ignoring BSIM parameter XL
Ignoring BSIM parameter XW
Ignoring BSIM parameter XL
Ignoring BSIM parameter XW
Ignoring BSIM parameter XL
Ignoring BSIM parameter XW
Ignoring BSIM parameter XL
Ignoring BSIM parameter XW
Ignoring BSIM parameter XL
Ignoring BSIM parameter XW
Ignoring BSIM parameter XL
Ignoring BSIM parameter XW
Ignoring BSIM parameter XL
Ignoring BSIM parameter XW
Ignoring BSIM parameter XL
Ignoring BSIM parameter XW
Ignoring BSIM parameter XL
Ignoring BSIM parameter XW
Ignoring BSIM parameter XL
Ignoring BSIM parameter XW
Ignoring BSIM parameter XL
Ignoring BSIM parameter XW
Ignoring BSIM parameter XL
Ignoring BSIM parameter XW
Ignoring BSIM parameter XL
Ignoring BSIM parameter XW
Ignoring BSIM parameter XL
Ignoring BSIM parameter XW
Ignoring BSIM parameter XL
Ignoring BSIM parameter XW
Ignoring BSIM parameter XL
Ignoring BSIM parameter XW
Ignoring BSIM parameter XL
Ignoring BSIM parameter XW
Ignoring BSIM parameter XL
Ignoring BSIM parameter XW
Ignoring BSIM parameter XL
Ignoring BSIM parameter XW
Ignoring BSIM parameter XL
Ignoring BSIM parameter XW
Ignoring BSIM parameter XL
Ignoring BSIM parameter XW
Ignoring BSIM parameter XL
Ignoring BSIM parameter XW
Ignoring BSIM parameter XL
Ignoring BSIM parameter XW
Ignoring BSIM parameter XL
Ignoring BSIM parameter XW
Ignoring BSIM parameter XL
Ignoring BSIM parameter XW
Ignoring BSIM parameter XL
Ignoring BSIM parameter XW
Ignoring BSIM parameter XL
Ignoring BSIM parameter XW
Ignoring BSIM parameter XL
Ignoring BSIM parameter XW
Ignoring BSIM parameter XL
Ignoring BSIM parameter XW
Ignoring BSIM parameter XL
Ignoring BSIM parameter XW
Ignoring BSIM parameter XL
Ignoring BSIM parameter XW
Ignoring BSIM parameter XL
Ignoring BSIM parameter XW
Ignoring BSIM parameter XL
Ignoring BSIM parameter XW
Ignoring BSIM parameter XL
Ignoring BSIM parameter XW
Ignoring BSIM parameter XL
Ignoring BSIM parameter XW
Ignoring BSIM parameter XL
Ignoring BSIM parameter XW
Ignoring BSIM parameter XL
Ignoring BSIM parameter XW
Ignoring BSIM parameter XL
Ignoring BSIM parameter XW
Ignoring BSIM parameter XL
Ignoring BSIM parameter XW
Ignoring BSIM parameter XL
Ignoring BSIM parameter XW
Ignoring BSIM parameter XL
Ignoring BSIM parameter XW
Ignoring BSIM parameter XL
Ignoring BSIM parameter XW
Ignoring BSIM parameter XL
Ignoring BSIM parameter XW
Ignoring BSIM parameter XL
Ignoring BSIM parameter XW
Ignoring BSIM parameter XL
Ignoring BSIM parameter XW
Ignoring BSIM parameter XL
Ignoring BSIM parameter XW
Ignoring BSIM parameter XL
Ignoring BSIM parameter XW
Ignoring BSIM parameter XL
Ignoring BSIM parameter XW
Ignoring BSIM parameter XL
Ignoring BSIM parameter XW
Ignoring BSIM parameter XL
Ignoring BSIM parameter XW
Ignoring BSIM parameter XL
Ignoring BSIM parameter XW
Ignoring BSIM parameter XL
Ignoring BSIM parameter XW
Ignoring BSIM parameter XL
Ignoring BSIM parameter XW
Ignoring BSIM parameter XL
Ignoring BSIM parameter XW
Ignoring BSIM parameter XL
Ignoring BSIM parameter XW
Ignoring BSIM parameter XL
Ignoring BSIM parameter XW
Ignoring BSIM parameter XL
Ignoring BSIM parameter XW
Ignoring BSIM parameter XL
Ignoring BSIM parameter XW
Ignoring BSIM parameter XL
Ignoring BSIM parameter XW
Ignoring BSIM parameter XL
Ignoring BSIM parameter XW
Ignoring BSIM parameter XL
Ignoring BSIM parameter XW
Ignoring BSIM parameter XL
Ignoring BSIM parameter XW
Ignoring BSIM parameter XL
Ignoring BSIM parameter XW
Ignoring BSIM parameter XL
Ignoring BSIM parameter XW
Ignoring BSIM parameter XL
Ignoring BSIM parameter XW
Ignoring BSIM parameter XL
Ignoring BSIM parameter XW
Ignoring BSIM parameter XL
Ignoring BSIM parameter XW
Ignoring BSIM parameter XL
Ignoring BSIM parameter XW
Ignoring BSIM parameter XL
Ignoring BSIM parameter XW
Ignoring BSIM parameter XL
Ignoring BSIM parameter XW
Ignoring BSIM parameter XL
Ignoring BSIM parameter XW
Ignoring BSIM parameter XL
Ignoring BSIM parameter XW
Ignoring BSIM parameter XL
Ignoring BSIM parameter XW
Ignoring BSIM parameter XL
Ignoring BSIM parameter XW
Ignoring BSIM parameter XL
Ignoring BSIM parameter XW
Ignoring BSIM parameter XL
Ignoring BSIM parameter XW
Ignoring BSIM parameter XL
Ignoring BSIM parameter XW
Ignoring BSIM parameter XL
Ignoring BSIM parameter XW
Ignoring BSIM parameter XL
Ignoring BSIM parameter XW
Ignoring BSIM parameter XL
Ignoring BSIM parameter XW
Ignoring BSIM parameter XL
Ignoring BSIM parameter XW
Ignoring BSIM parameter XL
Ignoring BSIM parameter XW
Ignoring BSIM parameter XL
Ignoring BSIM parameter XW
Ignoring BSIM parameter XL
Ignoring BSIM parameter XW
Ignoring BSIM parameter XL
Ignoring BSIM parameter XW
Ignoring BSIM parameter XL
Ignoring BSIM parameter XW
Ignoring BSIM parameter XL
Ignoring BSIM parameter XW
Ignoring BSIM parameter XL
Ignoring BSIM parameter XW
Ignoring BSIM parameter XL
Ignoring BSIM parameter XW
Ignoring BSIM parameter XL
Ignoring BSIM parameter XW
Ignoring BSIM parameter XL
Ignoring BSIM parameter XW
Ignoring BSIM parameter XL
Ignoring BSIM parameter XW
Ignoring BSIM parameter XL
Ignoring BSIM parameter XW
Ignoring BSIM parameter XL
Ignoring BSIM parameter XW
Ignoring BSIM parameter XL
Ignoring BSIM parameter XW
Ignoring BSIM parameter XL
Ignoring BSIM parameter XW
Ignoring BSIM parameter XL
Ignoring BSIM parameter XW
Ignoring BSIM parameter XL
Ignoring BSIM parameter XW
Ignoring BSIM parameter XL
Ignoring BSIM parameter XW
Ignoring BSIM parameter XL
Ignoring BSIM parameter XW
Ignoring BSIM parameter XL
Ignoring BSIM parameter XW
Ignoring BSIM parameter XL
Ignoring BSIM parameter XW
Ignoring BSIM parameter XL
Ignoring BSIM parameter XW
Ignoring BSIM parameter XL
Ignoring BSIM parameter XW
Ignoring BSIM parameter XL
Ignoring BSIM parameter XW
Ignoring BSIM parameter XL
Ignoring BSIM parameter XW
Ignoring BSIM parameter XL
Ignoring BSIM parameter XW
Ignoring BSIM parameter XL
Ignoring BSIM parameter XW
Ignoring BSIM parameter XL
Ignoring BSIM parameter XW
Ignoring BSIM parameter XL
Ignoring BSIM parameter XW
Ignoring BSIM parameter XL
Ignoring BSIM parameter XW
Ignoring BSIM parameter XL
Ignoring BSIM parameter XW
Ignoring BSIM parameter XL
Ignoring BSIM parameter XW
Ignoring BSIM parameter XL
Ignoring BSIM parameter XW
Ignoring BSIM parameter XL
Ignoring BSIM parameter XW
Ignoring BSIM parameter XL
Ignoring BSIM parameter XW
Ignoring BSIM parameter XL
Ignoring BSIM parameter XW
Ignoring BSIM parameter XL
Ignoring BSIM parameter XW
Ignoring BSIM parameter XL
Ignoring BSIM parameter XW
Ignoring BSIM parameter XL
Ignoring BSIM parameter XW
Ignoring BSIM parameter XL
Ignoring BSIM parameter XW
Ignoring BSIM parameter XL
Ignoring BSIM parameter XW
Ignoring BSIM parameter XL
Ignoring BSIM parameter XW
Ignoring BSIM parameter XL
Ignoring BSIM parameter XW
Ignoring BSIM parameter XL
Ignoring BSIM parameter XW
Ignoring BSIM parameter XL
Ignoring BSIM parameter XW
Ignoring BSIM parameter XL
Ignoring BSIM parameter XW
Ignoring BSIM parameter XL
Ignoring BSIM parameter XW
Ignoring BSIM parameter XL
Ignoring BSIM parameter XW
Ignoring BSIM parameter XL
Ignoring BSIM parameter XW
Ignoring BSIM parameter XL
Ignoring BSIM parameter XW
Ignoring BSIM parameter XL
Ignoring BSIM parameter XW
Ignoring BSIM parameter XL
Ignoring BSIM parameter XW
Ignoring BSIM parameter XL
Ignoring BSIM parameter XW
Ignoring BSIM parameter XL
Ignoring BSIM parameter XW
Ignoring BSIM parameter XL
Ignoring BSIM parameter XW
Ignoring BSIM parameter XL
Ignoring BSIM parameter XW
Ignoring BSIM parameter XL
Ignoring BSIM parameter XW
Ignoring BSIM parameter XL
Ignoring BSIM parameter XW
Ignoring BSIM parameter XL
Ignoring BSIM parameter XW
Warning: Pd = 0 is less than W.
Warning: Ps = 0 is less than W.
Warning: Pd = 0 is less than W.
Warning: Ps = 0 is less than W.
Warning: Pd = 0 is less than W.
Warning: Ps = 0 is less than W.
Warning: Pd = 0 is less than W.
Warning: Ps = 0 is less than W.
Warning: Pd = 0 is less than W.
Warning: Ps = 0 is less than W.
Warning: Pd = 0 is less than W.
Warning: Ps = 0 is less than W.
Warning: Pd = 0 is less than W.
Warning: Ps = 0 is less than W.
Warning: Pd = 0 is less than W.
Warning: Ps = 0 is less than W.
Warning: Pd = 0 is less than W.
Warning: Ps = 0 is less than W.
Warning: Pd = 0 is less than W.
Warning: Ps = 0 is less than W.
Warning: Pd = 0 is less than W.
Warning: Ps = 0 is less than W.
Warning: Pd = 0 is less than W.
Warning: Ps = 0 is less than W.
Warning: Pd = 0 is less than W.
Warning: Ps = 0 is less than W.
Warning: Pd = 0 is less than W.
Warning: Ps = 0 is less than W.
Warning: Pd = 0 is less than W.
Warning: Ps = 0 is less than W.
Warning: Pd = 0 is less than W.
Warning: Ps = 0 is less than W.
Warning: Pd = 0 is less than W.
Warning: Ps = 0 is less than W.
Warning: Pd = 0 is less than W.
Warning: Ps = 0 is less than W.
Warning: Pd = 0 is less than W.
Warning: Ps = 0 is less than W.
Warning: Pd = 0 is less than W.
Warning: Ps = 0 is less than W.
Warning: Pd = 0 is less than W.
Warning: Ps = 0 is less than W.
Warning: Pd = 0 is less than W.
Warning: Ps = 0 is less than W.
Warning: Pd = 0 is less than W.
Warning: Ps = 0 is less than W.
Warning: Pd = 0 is less than W.
Warning: Ps = 0 is less than W.
Warning: Pd = 0 is less than W.
Warning: Ps = 0 is less than W.
Warning: Pd = 0 is less than W.
Warning: Ps = 0 is less than W.
Warning: Pd = 0 is less than W.
Warning: Ps = 0 is less than W.
Warning: Pd = 0 is less than W.
Warning: Ps = 0 is less than W.
Warning: Pd = 0 is less than W.
Warning: Ps = 0 is less than W.
Warning: Pd = 0 is less than W.
Warning: Ps = 0 is less than W.
Warning: Pd = 0 is less than W.
Warning: Ps = 0 is less than W.
Warning: Pd = 0 is less than W.
Warning: Ps = 0 is less than W.
Warning: Pd = 0 is less than W.
Warning: Ps = 0 is less than W.
Warning: Pd = 0 is less than W.
Warning: Ps = 0 is less than W.
Warning: Pd = 0 is less than W.
Warning: Ps = 0 is less than W.
Warning: Pd = 0 is less than W.
Warning: Ps = 0 is less than W.
Warning: Pd = 0 is less than W.
Warning: Ps = 0 is less than W.
Warning: Pd = 0 is less than W.
Warning: Ps = 0 is less than W.
Warning: Pd = 0 is less than W.
Warning: Ps = 0 is less than W.
Warning: Pd = 0 is less than W.
Warning: Ps = 0 is less than W.
Warning: Pd = 0 is less than W.
Warning: Ps = 0 is less than W.
Warning: Pd = 0 is less than W.
Warning: Ps = 0 is less than W.
Warning: Pd = 0 is less than W.
Warning: Ps = 0 is less than W.
Warning: Pd = 0 is less than W.
Warning: Ps = 0 is less than W.
Warning: Pd = 0 is less than W.
Warning: Ps = 0 is less than W.
Warning: Pd = 0 is less than W.
Warning: Ps = 0 is less than W.
Warning: Pd = 0 is less than W.
Warning: Ps = 0 is less than W.
Warning: Pd = 0 is less than W.
Warning: Ps = 0 is less than W.
Warning: Pd = 0 is less than W.
Warning: Ps = 0 is less than W.
Warning: Pd = 0 is less than W.
Warning: Ps = 0 is less than W.
Warning: Pd = 0 is less than W.
Warning: Ps = 0 is less than W.
Warning: Pd = 0 is less than W.
Warning: Ps = 0 is less than W.
Warning: Pd = 0 is less than W.
Warning: Ps = 0 is less than W.
Warning: Pd = 0 is less than W.
Warning: Ps = 0 is less than W.
Warning: Pd = 0 is less than W.
Warning: Ps = 0 is less than W.
Warning: Pd = 0 is less than W.
Warning: Ps = 0 is less than W.
Warning: Pd = 0 is less than W.
Warning: Ps = 0 is less than W.
Warning: Pd = 0 is less than W.
Warning: Ps = 0 is less than W.
Warning: Pd = 0 is less than W.
Warning: Ps = 0 is less than W.
Warning: Pd = 0 is less than W.
Warning: Ps = 0 is less than W.
Warning: Pd = 0 is less than W.
Warning: Ps = 0 is less than W.
Warning: Pd = 0 is less than W.
Warning: Ps = 0 is less than W.
Warning: Pd = 0 is less than W.
Warning: Ps = 0 is less than W.
Warning: Pd = 0 is less than W.
Warning: Ps = 0 is less than W.
Warning: Pd = 0 is less than W.
Warning: Ps = 0 is less than W.
Warning: Pd = 0 is less than W.
Warning: Ps = 0 is less than W.
Warning: Pd = 0 is less than W.
Warning: Ps = 0 is less than W.
Warning: Pd = 0 is less than W.
Warning: Ps = 0 is less than W.
Warning: Pd = 0 is less than W.
Warning: Ps = 0 is less than W.
Warning: Pd = 0 is less than W.
Warning: Ps = 0 is less than W.
Warning: Pd = 0 is less than W.
Warning: Ps = 0 is less than W.
Warning: Pd = 0 is less than W.
Warning: Ps = 0 is less than W.
Warning: Pd = 0 is less than W.
Warning: Ps = 0 is less than W.
Warning: Pd = 0 is less than W.
Warning: Ps = 0 is less than W.
Warning: Pd = 0 is less than W.
Warning: Ps = 0 is less than W.
Warning: Pd = 0 is less than W.
Warning: Ps = 0 is less than W.
Warning: Pd = 0 is less than W.
Warning: Ps = 0 is less than W.
Warning: Pd = 0 is less than W.
Warning: Ps = 0 is less than W.
Warning: Pd = 0 is less than W.
Warning: Ps = 0 is less than W.
Warning: Pd = 0 is less than W.
Warning: Ps = 0 is less than W.
Warning: Pd = 0 is less than W.
Warning: Ps = 0 is less than W.
Warning: Pd = 0 is less than W.
Warning: Ps = 0 is less than W.
Warning: Pd = 0 is less than W.
Warning: Ps = 0 is less than W.
Warning: Pd = 0 is less than W.
Warning: Ps = 0 is less than W.
Warning: Pd = 0 is less than W.
Warning: Ps = 0 is less than W.
Warning: Pd = 0 is less than W.
Warning: Ps = 0 is less than W.
Warning: Pd = 0 is less than W.
Warning: Ps = 0 is less than W.
Warning: Pd = 0 is less than W.
Warning: Ps = 0 is less than W.
Warning: Pd = 0 is less than W.
Warning: Ps = 0 is less than W.
Warning: Pd = 0 is less than W.
Warning: Ps = 0 is less than W.
Warning: Pd = 0 is less than W.
Warning: Ps = 0 is less than W.
Warning: Pd = 0 is less than W.
Warning: Ps = 0 is less than W.
Warning: Pd = 0 is less than W.
Warning: Ps = 0 is less than W.
Warning: Pd = 0 is less than W.
Warning: Ps = 0 is less than W.
Warning: Pd = 0 is less than W.
Warning: Ps = 0 is less than W.
Warning: Pd = 0 is less than W.
Warning: Ps = 0 is less than W.
Warning: Pd = 0 is less than W.
Warning: Ps = 0 is less than W.
Warning: Pd = 0 is less than W.
Warning: Ps = 0 is less than W.
Warning: Pd = 0 is less than W.
Warning: Ps = 0 is less than W.
Warning: Pd = 0 is less than W.
Warning: Ps = 0 is less than W.
Warning: Pd = 0 is less than W.
Warning: Ps = 0 is less than W.
Warning: Pd = 0 is less than W.
Warning: Ps = 0 is less than W.
Warning: Pd = 0 is less than W.
Warning: Ps = 0 is less than W.
Warning: Pd = 0 is less than W.
Warning: Ps = 0 is less than W.
Warning: Pd = 0 is less than W.
Warning: Ps = 0 is less than W.
Warning: Pd = 0 is less than W.
Warning: Ps = 0 is less than W.
Warning: Pd = 0 is less than W.
Warning: Ps = 0 is less than W.
Warning: Pd = 0 is less than W.
Warning: Ps = 0 is less than W.
Warning: Pd = 0 is less than W.
Warning: Ps = 0 is less than W.
Warning: Pd = 0 is less than W.
Warning: Ps = 0 is less than W.
Warning: Pd = 0 is less than W.
Warning: Ps = 0 is less than W.
Warning: Pd = 0 is less than W.
Warning: Ps = 0 is less than W.
Warning: Pd = 0 is less than W.
Warning: Ps = 0 is less than W.
Warning: Pd = 0 is less than W.
Warning: Ps = 0 is less than W.
Warning: Pd = 0 is less than W.
Warning: Ps = 0 is less than W.
Warning: Pd = 0 is less than W.
Warning: Ps = 0 is less than W.
Warning: Pd = 0 is less than W.
Warning: Ps = 0 is less than W.
Warning: Pd = 0 is less than W.
Warning: Ps = 0 is less than W.
Warning: Pd = 0 is less than W.
Warning: Ps = 0 is less than W.
Warning: Pd = 0 is less than W.
Warning: Ps = 0 is less than W.
Warning: Pd = 0 is less than W.
Warning: Ps = 0 is less than W.
Warning: Pd = 0 is less than W.
Warning: Ps = 0 is less than W.
Warning: Pd = 0 is less than W.
Warning: Ps = 0 is less than W.
Warning: Pd = 0 is less than W.
Warning: Ps = 0 is less than W.
Warning: Pd = 0 is less than W.
Warning: Ps = 0 is less than W.
Warning: Pd = 0 is less than W.
Warning: Ps = 0 is less than W.
Warning: Pd = 0 is less than W.
Warning: Ps = 0 is less than W.
Warning: Pd = 0 is less than W.
Warning: Ps = 0 is less than W.
Warning: Pd = 0 is less than W.
Warning: Ps = 0 is less than W.
Warning: Pd = 0 is less than W.
Warning: Ps = 0 is less than W.
Warning: Pd = 0 is less than W.
Warning: Ps = 0 is less than W.
Warning: Pd = 0 is less than W.
Warning: Ps = 0 is less than W.
Warning: Pd = 0 is less than W.
Warning: Ps = 0 is less than W.
Warning: Pd = 0 is less than W.
Warning: Ps = 0 is less than W.
Warning: Pd = 0 is less than W.
Warning: Ps = 0 is less than W.
Warning: Pd = 0 is less than W.
Warning: Ps = 0 is less than W.
Warning: Pd = 0 is less than W.
Warning: Ps = 0 is less than W.
Warning: Pd = 0 is less than W.
Warning: Ps = 0 is less than W.
Warning: Pd = 0 is less than W.
Warning: Ps = 0 is less than W.
Warning: Pd = 0 is less than W.
Warning: Ps = 0 is less than W.
Warning: Pd = 0 is less than W.
Warning: Ps = 0 is less than W.
Warning: Pd = 0 is less than W.
Warning: Ps = 0 is less than W.
Warning: Pd = 0 is less than W.
Warning: Ps = 0 is less than W.
Warning: Pd = 0 is less than W.
Warning: Ps = 0 is less than W.
Warning: Pd = 0 is less than W.
Warning: Ps = 0 is less than W.
Warning: Pd = 0 is less than W.
Warning: Ps = 0 is less than W.
Warning: Pd = 0 is less than W.
Warning: Ps = 0 is less than W.
Warning: Pd = 0 is less than W.
Warning: Ps = 0 is less than W.
Warning: Pd = 0 is less than W.
Warning: Ps = 0 is less than W.
Warning: Pd = 0 is less than W.
Warning: Ps = 0 is less than W.
Warning: Pd = 0 is less than W.
Warning: Ps = 0 is less than W.
Warning: Pd = 0 is less than W.
Warning: Ps = 0 is less than W.
Warning: Pd = 0 is less than W.
Warning: Ps = 0 is less than W.
Warning: Pd = 0 is less than W.
Warning: Ps = 0 is less than W.
Warning: Pd = 0 is less than W.
Warning: Ps = 0 is less than W.
Warning: Pd = 0 is less than W.
Warning: Ps = 0 is less than W.
Warning: Pd = 0 is less than W.
Warning: Ps = 0 is less than W.
Warning: Pd = 0 is less than W.
Warning: Ps = 0 is less than W.
Warning: Pd = 0 is less than W.
Warning: Ps = 0 is less than W.
Warning: Pd = 0 is less than W.
Warning: Ps = 0 is less than W.
Warning: Pd = 0 is less than W.
Warning: Ps = 0 is less than W.
Warning: Pd = 0 is less than W.
Warning: Ps = 0 is less than W.
Warning: Pd = 0 is less than W.
Warning: Ps = 0 is less than W.
Warning: Pd = 0 is less than W.
Warning: Ps = 0 is less than W.
Warning: Pd = 0 is less than W.
Warning: Ps = 0 is less than W.
Warning: Pd = 0 is less than W.
Warning: Ps = 0 is less than W.
Warning: Pd = 0 is less than W.
Warning: Ps = 0 is less than W.
Warning: Pd = 0 is less than W.
Warning: Ps = 0 is less than W.
Warning: Pd = 0 is less than W.
Warning: Ps = 0 is less than W.
Warning: Pd = 0 is less than W.
Warning: Ps = 0 is less than W.
Warning: Pd = 0 is less than W.
Warning: Ps = 0 is less than W.
Warning: Pd = 0 is less than W.
Warning: Ps = 0 is less than W.
Warning: Pd = 0 is less than W.
Warning: Ps = 0 is less than W.
Warning: Pd = 0 is less than W.
Warning: Ps = 0 is less than W.
Warning: Pd = 0 is less than W.
Warning: Ps = 0 is less than W.
Warning: Pd = 0 is less than W.
Warning: Ps = 0 is less than W.
Warning: Pd = 0 is less than W.
Warning: Ps = 0 is less than W.
Warning: Pd = 0 is less than W.
Warning: Ps = 0 is less than W.
Warning: Pd = 0 is less than W.
Warning: Ps = 0 is less than W.
Warning: Pd = 0 is less than W.
Warning: Ps = 0 is less than W.
Warning: Pd = 0 is less than W.
Warning: Ps = 0 is less than W.
Warning: Pd = 0 is less than W.
Warning: Ps = 0 is less than W.
Warning: Pd = 0 is less than W.
Warning: Ps = 0 is less than W.
Warning: Pd = 0 is less than W.
Warning: Ps = 0 is less than W.
Warning: Pd = 0 is less than W.
Warning: Ps = 0 is less than W.
Warning: Pd = 0 is less than W.
Warning: Ps = 0 is less than W.
Warning: Pd = 0 is less than W.
Warning: Ps = 0 is less than W.
Warning: Pd = 0 is less than W.
Warning: Ps = 0 is less than W.
Warning: Pd = 0 is less than W.
Warning: Ps = 0 is less than W.
Warning: Pd = 0 is less than W.
Warning: Ps = 0 is less than W.
Warning: Pd = 0 is less than W.
Warning: Ps = 0 is less than W.
Warning: Pd = 0 is less than W.
Warning: Ps = 0 is less than W.
Warning: Pd = 0 is less than W.
Warning: Ps = 0 is less than W.
Warning: Pd = 0 is less than W.
Warning: Ps = 0 is less than W.
Warning: Pd = 0 is less than W.
Warning: Ps = 0 is less than W.
Warning: Pd = 0 is less than W.
Warning: Ps = 0 is less than W.
Warning: Pd = 0 is less than W.
Warning: Ps = 0 is less than W.
Warning: Pd = 0 is less than W.
Warning: Ps = 0 is less than W.
Warning: Pd = 0 is less than W.
Warning: Ps = 0 is less than W.
Warning: Pd = 0 is less than W.
Warning: Ps = 0 is less than W.
Warning: Pd = 0 is less than W.
Warning: Ps = 0 is less than W.
Warning: Pd = 0 is less than W.
Warning: Ps = 0 is less than W.
Warning: Pd = 0 is less than W.
Warning: Ps = 0 is less than W.
Warning: Pd = 0 is less than W.
Warning: Ps = 0 is less than W.
Warning: Pd = 0 is less than W.
Warning: Ps = 0 is less than W.
Warning: Pd = 0 is less than W.
Warning: Ps = 0 is less than W.
Warning: Pd = 0 is less than W.
Warning: Ps = 0 is less than W.
Warning: Pd = 0 is less than W.
Warning: Ps = 0 is less than W.
Warning: Pd = 0 is less than W.
Warning: Ps = 0 is less than W.
Warning: Pd = 0 is less than W.
Warning: Ps = 0 is less than W.
Warning: Pd = 0 is less than W.
Warning: Ps = 0 is less than W.
Warning: Pd = 0 is less than W.
Warning: Ps = 0 is less than W.
Warning: Pd = 0 is less than W.
Warning: Ps = 0 is less than W.
Warning: Pd = 0 is less than W.
Warning: Ps = 0 is less than W.
Warning: Pd = 0 is less than W.
Warning: Ps = 0 is less than W.
Warning: Pd = 0 is less than W.
Warning: Ps = 0 is less than W.
Warning: Pd = 0 is less than W.
Warning: Ps = 0 is less than W.
Warning: Pd = 0 is less than W.
Warning: Ps = 0 is less than W.
Warning: Pd = 0 is less than W.
Warning: Ps = 0 is less than W.
Warning: Pd = 0 is less than W.
Warning: Ps = 0 is less than W.
Warning: Pd = 0 is less than W.
Warning: Ps = 0 is less than W.
Warning: Pd = 0 is less than W.
Warning: Ps = 0 is less than W.
Warning: Pd = 0 is less than W.
Warning: Ps = 0 is less than W.
Warning: Pd = 0 is less than W.
Warning: Ps = 0 is less than W.
Warning: Pd = 0 is less than W.
Warning: Ps = 0 is less than W.
Warning: Pd = 0 is less than W.
Warning: Ps = 0 is less than W.
Warning: Pd = 0 is less than W.
Warning: Ps = 0 is less than W.
Warning: Pd = 0 is less than W.
Warning: Ps = 0 is less than W.
Warning: Pd = 0 is less than W.
Warning: Ps = 0 is less than W.
Warning: Pd = 0 is less than W.
Warning: Ps = 0 is less than W.
Warning: Pd = 0 is less than W.
Warning: Ps = 0 is less than W.
Warning: Pd = 0 is less than W.
Warning: Ps = 0 is less than W.
Warning: Pd = 0 is less than W.
Warning: Ps = 0 is less than W.
Warning: Pd = 0 is less than W.
Warning: Ps = 0 is less than W.
Warning: Pd = 0 is less than W.
Warning: Ps = 0 is less than W.
Warning: Pd = 0 is less than W.
Warning: Ps = 0 is less than W.
Warning: Pd = 0 is less than W.
Warning: Ps = 0 is less than W.
Warning: Pd = 0 is less than W.
Warning: Ps = 0 is less than W.
Warning: Pd = 0 is less than W.
Warning: Ps = 0 is less than W.
Warning: Pd = 0 is less than W.
Warning: Ps = 0 is less than W.
Warning: Pd = 0 is less than W.
Warning: Ps = 0 is less than W.
Warning: Pd = 0 is less than W.
Warning: Ps = 0 is less than W.
Warning: Pd = 0 is less than W.
Warning: Ps = 0 is less than W.
Warning: Pd = 0 is less than W.
Warning: Ps = 0 is less than W.
Warning: Pd = 0 is less than W.
Warning: Ps = 0 is less than W.
Warning: Pd = 0 is less than W.
Warning: Ps = 0 is less than W.
Warning: Pd = 0 is less than W.
Warning: Ps = 0 is less than W.
Warning: Pd = 0 is less than W.
Warning: Ps = 0 is less than W.
Warning: Pd = 0 is less than W.
Warning: Ps = 0 is less than W.
Warning: Pd = 0 is less than W.
Warning: Ps = 0 is less than W.
Warning: Pd = 0 is less than W.
Warning: Ps = 0 is less than W.
Warning: Pd = 0 is less than W.
Warning: Ps = 0 is less than W.
Warning: Pd = 0 is less than W.
Warning: Ps = 0 is less than W.
Warning: Pd = 0 is less than W.
Warning: Ps = 0 is less than W.
Warning: Pd = 0 is less than W.
Warning: Ps = 0 is less than W.
Warning: Pd = 0 is less than W.
Warning: Ps = 0 is less than W.
Warning: Pd = 0 is less than W.
Warning: Ps = 0 is less than W.
Warning: Pd = 0 is less than W.
Warning: Ps = 0 is less than W.
Warning: Pd = 0 is less than W.
Warning: Ps = 0 is less than W.
Warning: Pd = 0 is less than W.
Warning: Ps = 0 is less than W.
Warning: Pd = 0 is less than W.
Warning: Ps = 0 is less than W.
Warning: Pd = 0 is less than W.
Warning: Ps = 0 is less than W.
Warning: Pd = 0 is less than W.
Warning: Ps = 0 is less than W.
Warning: Pd = 0 is less than W.
Warning: Ps = 0 is less than W.
Warning: Pd = 0 is less than W.
Warning: Ps = 0 is less than W.
Warning: Pd = 0 is less than W.
Warning: Ps = 0 is less than W.
Warning: Pd = 0 is less than W.
Warning: Ps = 0 is less than W.
Warning: Pd = 0 is less than W.
Warning: Ps = 0 is less than W.
Warning: Pd = 0 is less than W.
Warning: Ps = 0 is less than W.
Warning: Pd = 0 is less than W.
Warning: Ps = 0 is less than W.
Warning: Pd = 0 is less than W.
Warning: Ps = 0 is less than W.
Warning: Pd = 0 is less than W.
Warning: Ps = 0 is less than W.
Warning: Pd = 0 is less than W.
Warning: Ps = 0 is less than W.
Warning: Pd = 0 is less than W.
Warning: Ps = 0 is less than W.
Warning: Pd = 0 is less than W.
Warning: Ps = 0 is less than W.
Warning: Pd = 0 is less than W.
Warning: Ps = 0 is less than W.
Warning: Pd = 0 is less than W.
Warning: Ps = 0 is less than W.
Warning: Pd = 0 is less than W.
Warning: Ps = 0 is less than W.
Warning: Pd = 0 is less than W.
Warning: Ps = 0 is less than W.
Warning: Pd = 0 is less than W.
Warning: Ps = 0 is less than W.
Warning: Pd = 0 is less than W.
Warning: Ps = 0 is less than W.
Warning: Pd = 0 is less than W.
Warning: Ps = 0 is less than W.
Warning: Pd = 0 is less than W.
Warning: Ps = 0 is less than W.
Warning: Pd = 0 is less than W.
Warning: Ps = 0 is less than W.
Warning: Pd = 0 is less than W.
Warning: Ps = 0 is less than W.
Warning: Pd = 0 is less than W.
Warning: Ps = 0 is less than W.
Warning: Pd = 0 is less than W.
Warning: Ps = 0 is less than W.
Warning: Pd = 0 is less than W.
Warning: Ps = 0 is less than W.
Warning: Pd = 0 is less than W.
Warning: Ps = 0 is less than W.
Warning: Pd = 0 is less than W.
Warning: Ps = 0 is less than W.
Warning: Pd = 0 is less than W.
Warning: Ps = 0 is less than W.
Warning: Pd = 0 is less than W.
Warning: Ps = 0 is less than W.
Warning: Pd = 0 is less than W.
Warning: Ps = 0 is less than W.
Warning: Pd = 0 is less than W.
Warning: Ps = 0 is less than W.
Warning: Pd = 0 is less than W.
Warning: Ps = 0 is less than W.
Warning: Pd = 0 is less than W.
Warning: Ps = 0 is less than W.
Warning: Pd = 0 is less than W.
Warning: Ps = 0 is less than W.
Warning: Pd = 0 is less than W.
Warning: Ps = 0 is less than W.
Early termination of direct N-R iteration.
Direct Newton iteration failed to find .op point.  (Use ".option noopiter" to skip.)
Starting Gmin stepping
Gmin = 10
Gmin = 1.07374
Gmin = 0.115292
Gmin = 0.0123794
Gmin = 0.00132923
Gmin = 0.000142725
Gmin = 1.5325e-005
Gmin = 1.6455e-006
Gmin = 1.76685e-007
Gmin = 1.89714e-008
Gmin = 2.03704e-009
Gmin = 2.18725e-010
Gmin = 2.34854e-011
Gmin = 2.52173e-012
Gmin = 2.70769e-013
Gmin = 0
Gmin stepping succeeded in finding the operating point.

Heightened Def Con from 0.001 +to 0.001
Heightened Def Con from 0.001 +to 0.001
Heightened Def Con from 0.001 ++to 0.001
Heightened Def Con from 0.001 +++to 0.001
Heightened Def Con from 0.001 to 0.001
Heightened Def Con from 0.001 to 0.001
Heightened Def Con from 0.001 to 0.001
Heightened Def Con from 0.001 to 0.001
Heightened Def Con from 0.001 to 0.001
Heightened Def Con from 0.001 to 0.001
Heightened Def Con from 0.001 to 0.001
Heightened Def Con from 0.001 to 0.001
Heightened Def Con from 0.001 to 0.001
Heightened Def Con from 0.001 to 0.001
Heightened Def Con from 0.001 +to 0.001
Heightened Def Con from 0.001 +to 0.001
Heightened Def Con from 0.001 ++to 0.001
Heightened Def Con from 0.001 ++to 0.001
Heightened Def Con from 0.001 ++to 0.001
Heightened Def Con from 0.001 ++to 0.001
Heightened Def Con from 0.001 ++to 0.001
Heightened Def Con from 0.001 ++to 0.001
Heightened Def Con from 0.001 +++to 0.001
Heightened Def Con from 0.001 +++to 0.001
Heightened Def Con from 0.001 +++to 0.001
Heightened Def Con from 0.001 +++to 0.001
Heightened Def Con from 0.001 +++to 0.001
Heightened Def Con from 0.001 +++to 0.001
Heightened Def Con from 0.001 +++to 0.001
Heightened Def Con from 0.001 to 0.001
Heightened Def Con from 0.001 to 0.001
Heightened Def Con from 0.001 to 0.001
Heightened Def Con from 0.001 to 0.001
Heightened Def Con from 0.001 to 0.001
Heightened Def Con from 0.001 to 0.001
Heightened Def Con from 0.003 +to 0.003
Heightened Def Con from 0.003 +to 0.003
Heightened Def Con from 0.003 ++to 0.003
Heightened Def Con from 0.003 +++to 0.003
Heightened Def Con from 0.003 to 0.003
Heightened Def Con from 0.003 to 0.003
Heightened Def Con from 0.003 to 0.003
Heightened Def Con from 0.003 to 0.003
Heightened Def Con from 0.003 to 0.003
Heightened Def Con from 0.003 to 0.003
Heightened Def Con from 0.003 to 0.003
Heightened Def Con from 0.003 to 0.003
Heightened Def Con from 0.003 to 0.003
Heightened Def Con from 0.003 to 0.003
Heightened Def Con from 0.003 +to 0.003
Heightened Def Con from 0.003 +to 0.003
Heightened Def Con from 0.003 ++to 0.003
Heightened Def Con from 0.003 ++to 0.003
Heightened Def Con from 0.003 ++to 0.003
Heightened Def Con from 0.003 ++to 0.003
Heightened Def Con from 0.003 ++to 0.003
Heightened Def Con from 0.003 ++to 0.003
Heightened Def Con from 0.003 ++to 0.003
Heightened Def Con from 0.003 ++to 0.003
Heightened Def Con from 0.003 ++to 0.003
Heightened Def Con from 0.003 ++to 0.003
Heightened Def Con from 0.003 ++to 0.003
Heightened Def Con from 0.003 ++to 0.003
Heightened Def Con from 0.003 ++to 0.003
Heightened Def Con from 0.003 ++to 0.003

Date: Fri Feb 05 14:34:01 2021
Total elapsed time: 8.748 seconds.

tnom = 27
temp = 27
method = modified trap
totiter = 25934
traniter = 25528
tranpoints = 4782
accept = 3294
rejected = 1632
matrix size = 470
fillins = 984
solver = Normal
Thread vector: 414.5/233.6[4] 93.9/56.5[4] 33.1/25.6[4] 4.4/3.6[3]  2592/500
Matrix Compiler1: 121.46 KB object code size  32.4/14.5/[7.2]
Matrix Compiler2: 76.83 KB object code size  15.1/10.8/[9.0]

