Circuit: * C:\Users\RJ\Documents\LTspiceXVII\buses_example.asc

Fatal Error: This circuit does not contain a node other than node "0" (GND)
