Circuit: * C:\Users\RJ\Documents\LTspiceXVII\depletion_load_nmos_inv_347.asc

Model "dnmos": Oxide thickness thinner than recommended for a level 1 MOSFET.
Instance "ml": Length shorter than recommended for a level 1 MOSFET.
Instance "ml": Width narrower than recommended for a level 1 MOSFET.
Model "enmos": Oxide thickness thinner than recommended for a level 1 MOSFET.
Instance "md": Length shorter than recommended for a level 1 MOSFET.
Instance "md": Width narrower than recommended for a level 1 MOSFET.
Direct Newton iteration for .op point succeeded.

Date: Tue Feb 02 13:52:56 2021
Total elapsed time: 0.117 seconds.

tnom = 27
temp = 27
method = modified trap
totiter = 2321
traniter = 2315
tranpoints = 1148
accept = 1116
rejected = 32
matrix size = 9
fillins = 0
solver = Normal
Matrix Compiler1:      24 opcodes  0.1/[0.0]/0.1
Matrix Compiler2: off  [0.1]/0.1/0.1

