Circuit: * C:\Users\RJ\Documents\LTspiceXVII\Draft1.asc

Error on line 2 : v1 n001 0 v
	 Unknown parameter "v"
V1: Missing value, assumed 0V @ DC
.OP point found by inspection.

Date: Tue Jan 19 12:31:06 2021
Total elapsed time: 0.016 seconds.

tnom = 27
temp = 27
method = trap
totiter = 10
traniter = 0
tranpoints = 0
accept = 0
rejected = 0
matrix size = 2
fillins = 0
solver = Normal
Matrix Compiler1: 36 bytes object code size
Matrix Compiler2: 96 bytes object code size
