Circuit: * C:\Users\RJ\Documents\LTspiceXVII\Draft6.asc

Model "dnmos": Oxide thickness thinner than recommended for a level 1 MOSFET.
Instance "ml": Length shorter than recommended for a level 1 MOSFET.
Instance "ml": Width narrower than recommended for a level 1 MOSFET.
Model "enmos": Oxide thickness thinner than recommended for a level 1 MOSFET.
Instance "md": Length shorter than recommended for a level 1 MOSFET.
Instance "md": Width narrower than recommended for a level 1 MOSFET.

Date: Mon Jan 25 16:37:11 2021
Total elapsed time: 0.064 seconds.

tnom = 27
temp = 27
method = trap
totiter = 508
traniter = 0
tranpoints = 0
accept = 0
rejected = 0
matrix size = 9
fillins = 0
solver = Normal
Matrix Compiler1: 412 bytes object code size  0.2/0.1/[0.1]
Matrix Compiler2: 661 bytes object code size  0.1/0.2/[0.1]

