Circuit: * C:\Users\RJ\Documents\LTspiceXVII\Draft1.asc

Warning: Multiple definitions of model "cd4007ube" Type: Mos1
Warning: Multiple definitions of model "cd4007" Type: Mos1
Warning: Multiple definitions of model "or1:inverter:cd4007ube" Type: Mos1
Warning: Multiple definitions of model "or1:inverter:cd4007" Type: Mos1
Warning: Multiple definitions of model "inverter1:cd4007ube" Type: Mos1
Warning: Multiple definitions of model "inverter1:cd4007" Type: Mos1
Warning: Multiple definitions of model "and2:inverter:cd4007ube" Type: Mos1
Warning: Multiple definitions of model "and2:inverter:cd4007" Type: Mos1
Warning: Multiple definitions of model "and1:inverter:cd4007ube" Type: Mos1
Warning: Multiple definitions of model "and1:inverter:cd4007" Type: Mos1
Ignoring BSIM parameter XL
Ignoring BSIM parameter XW
Ignoring BSIM parameter XL
Ignoring BSIM parameter XW
Ignoring BSIM parameter XL
Ignoring BSIM parameter XW
Ignoring BSIM parameter XL
Ignoring BSIM parameter XW
Ignoring BSIM parameter XL
Ignoring BSIM parameter XW
Ignoring BSIM parameter XL
Ignoring BSIM parameter XW
Ignoring BSIM parameter XL
Ignoring BSIM parameter XW
Ignoring BSIM parameter XL
Ignoring BSIM parameter XW
Ignoring BSIM parameter XL
Ignoring BSIM parameter XW
Ignoring BSIM parameter XL
Ignoring BSIM parameter XW
Error on line 1134 : v_sel sel pulse(0 5 0 10n 10n 1m 2m
	 Unknown parameter "5"
WARNING: Node PULSE is floating.

WARNING: Less than two connections to node PULSE.  This node is used by V_SEL.
Warning: Pd = 0 is less than W.
Warning: Ps = 0 is less than W.
Warning: Pd = 0 is less than W.
Warning: Ps = 0 is less than W.
Warning: Pd = 0 is less than W.
Warning: Ps = 0 is less than W.
Warning: Pd = 0 is less than W.
Warning: Ps = 0 is less than W.
Warning: Pd = 0 is less than W.
Warning: Ps = 0 is less than W.
Warning: Pd = 0 is less than W.
Warning: Ps = 0 is less than W.
Warning: Pd = 0 is less than W.
Warning: Ps = 0 is less than W.
Warning: Pd = 0 is less than W.
Warning: Ps = 0 is less than W.
Warning: Pd = 0 is less than W.
Warning: Ps = 0 is less than W.
Warning: Pd = 0 is less than W.
Warning: Ps = 0 is less than W.
Direct Newton iteration for .op point succeeded.

Date: Fri Feb 05 18:38:49 2021
Total elapsed time: 0.165 seconds.

tnom = 27
temp = 27
method = modified trap
totiter = 4039
traniter = 4007
tranpoints = 1675
accept = 1504
rejected = 171
matrix size = 19
fillins = 15
solver = Normal
Matrix Compiler1: 1.82 KB object code size  0.4/0.2/[0.1]
Matrix Compiler2: 2.09 KB object code size  0.2/0.3/[0.2]

