Circuit: * C:\Users\RJ\Documents\LTspiceXVII\ee307_hw5_1b.asc

Direct Newton iteration for .op point succeeded.

Date: Sat Feb 13 10:55:02 2021
Total elapsed time: 0.789 seconds.

tnom = 27
temp = 27
method = modified trap
totiter = 265071
traniter = 265068
tranpoints = 132535
accept = 94672
rejected = 37863
matrix size = 2
fillins = 0
solver = Normal
Matrix Compiler1: 54 bytes object code size  0.0/0.0/[0.0]
Matrix Compiler2: off  [0.0]/0.0/0.0

