Circuit: * C:\Users\RJ\Documents\LTspiceXVII\ee306_hw5_q5.asc

Warning: Multiple definitions of model "cd4007ube" Type: Mos1
Warning: Multiple definitions of model "cd4007" Type: Mos1
Ignoring BSIM parameter XL
Ignoring BSIM parameter XW
Ignoring BSIM parameter XL
Ignoring BSIM parameter XW
Warning: Pd = 0 is less than W.
Warning: Ps = 0 is less than W.
Warning: Pd = 0 is less than W.
Warning: Ps = 0 is less than W.
Direct Newton iteration for .op point succeeded.

Date: Sun Feb 14 15:57:57 2021
Total elapsed time: 0.107 seconds.

tnom = 27
temp = 27
method = modified trap
totiter = 3172
traniter = 3159
tranpoints = 1557
accept = 1454
rejected = 103
matrix size = 5
fillins = 0
solver = Normal
Matrix Compiler1: off  [0.0]/0.0/0.0
Matrix Compiler2: 335 bytes object code size  0.0/0.1/[0.0]

