Circuit: * C:\Users\RJ\Documents\LTspiceXVII\ee347_prelab2_1b.asc


Date: Tue Jan 19 13:37:26 2021
Total elapsed time: 0.093 seconds.

tnom = 27
temp = 27
method = trap
totiter = 416
traniter = 0
tranpoints = 0
accept = 0
rejected = 0
matrix size = 6
fillins = 0
solver = Normal
Matrix Compiler1: 146 bytes object code size  0.1/0.1/[0.1]
Matrix Compiler2: 380 bytes object code size  0.1/0.1/[0.1]

