Circuit: * C:\Users\RJ\Documents\LTspiceXVII\ee347_prelab2_1c.asc


Date: Tue Jan 19 13:47:50 2021
Total elapsed time: 0.086 seconds.

tnom = 27
temp = 27
method = trap
totiter = 412
traniter = 0
tranpoints = 0
accept = 0
rejected = 0
matrix size = 7
fillins = 0
solver = Normal
Matrix Compiler1:      13 opcodes  0.1/[0.0]/0.1
Matrix Compiler2: 455 bytes object code size  0.1/0.1/[0.1]

