Circuit: * C:\Users\RJ\Documents\LTspiceXVII\ee347_prelab2_1a.asc


Date: Tue Jan 19 13:28:47 2021
Total elapsed time: 0.081 seconds.

tnom = 27
temp = 27
method = trap
totiter = 405
traniter = 0
tranpoints = 0
accept = 0
rejected = 0
matrix size = 5
fillins = 0
solver = Normal
Matrix Compiler1: 114 bytes object code size  0.1/0.1/[0.0]
Matrix Compiler2: 301 bytes object code size  0.1/0.1/[0.0]

