Circuit: * C:\Users\RJ\Documents\LTspiceXVII\fa_sum.asc

Warning: Multiple definitions of model "cd4007ube" Type: Mos1
Warning: Multiple definitions of model "cd4007" Type: Mos1
Warning: Multiple definitions of model "ha_sum2:xor:x3:inverter:cd4007ube" Type: Mos1
Warning: Multiple definitions of model "ha_sum2:xor:x3:inverter:cd4007" Type: Mos1
Warning: Multiple definitions of model "ha_sum2:xor:x1:inverter:cd4007ube" Type: Mos1
Warning: Multiple definitions of model "ha_sum2:xor:x1:inverter:cd4007" Type: Mos1
Warning: Multiple definitions of model "ha_sum1:xor:x3:inverter:cd4007ube" Type: Mos1
Warning: Multiple definitions of model "ha_sum1:xor:x3:inverter:cd4007" Type: Mos1
Warning: Multiple definitions of model "ha_sum1:xor:x1:inverter:cd4007ube" Type: Mos1
Warning: Multiple definitions of model "ha_sum1:xor:x1:inverter:cd4007" Type: Mos1
Ignoring BSIM parameter XL
Ignoring BSIM parameter XW
Ignoring BSIM parameter XL
Ignoring BSIM parameter XW
Ignoring BSIM parameter XL
Ignoring BSIM parameter XW
Ignoring BSIM parameter XL
Ignoring BSIM parameter XW
Ignoring BSIM parameter XL
Ignoring BSIM parameter XW
Ignoring BSIM parameter XL
Ignoring BSIM parameter XW
Ignoring BSIM parameter XL
Ignoring BSIM parameter XW
Ignoring BSIM parameter XL
Ignoring BSIM parameter XW
Ignoring BSIM parameter XL
Ignoring BSIM parameter XW
Ignoring BSIM parameter XL
Ignoring BSIM parameter XW
Warning: Pd = 0 is less than W.
Warning: Ps = 0 is less than W.
Warning: Pd = 0 is less than W.
Warning: Ps = 0 is less than W.
Warning: Pd = 0 is less than W.
Warning: Ps = 0 is less than W.
Warning: Pd = 0 is less than W.
Warning: Ps = 0 is less than W.
Warning: Pd = 0 is less than W.
Warning: Ps = 0 is less than W.
Warning: Pd = 0 is less than W.
Warning: Ps = 0 is less than W.
Warning: Pd = 0 is less than W.
Warning: Ps = 0 is less than W.
Warning: Pd = 0 is less than W.
Warning: Ps = 0 is less than W.
Warning: Pd = 0 is less than W.
Warning: Ps = 0 is less than W.
Warning: Pd = 0 is less than W.
Warning: Ps = 0 is less than W.
Direct Newton iteration for .op point succeeded.
Changing Tseed to 7.8125e-010
Changing Tseed to 7.8125e-012
Changing Tseed to 7.8125e-009
Changing Tseed to 7.8125e-013

Date: Wed Jan 27 09:46:50 2021
Total elapsed time: 0.216 seconds.

tnom = 27
temp = 27
method = modified trap
totiter = 8360
traniter = 8340
tranpoints = 2739
accept = 2274
rejected = 461
matrix size = 24
fillins = 4
solver = Normal
Thread vector: 12.8/10.8[2] 3.3/3.8[1] 1.0/2.1[1] 0.1/1.4[1]  2592/500
Matrix Compiler1: 2.04 KB object code size  0.4/0.2/[0.1]
Matrix Compiler2: 2.71 KB object code size  0.3/0.3/[0.3]

