Circuit: * C:\Users\RJ\Documents\LTspiceXVII\halfadder_summing.asc

Warning: Multiple definitions of model "cd4007ube" Type: Mos1
Warning: Multiple definitions of model "cd4007" Type: Mos1
Warning: Multiple definitions of model "and:inverter:cd4007ube" Type: Mos1
Warning: Multiple definitions of model "and:inverter:cd4007" Type: Mos1
Warning: Multiple definitions of model "xor:x3:inverter:cd4007ube" Type: Mos1
Warning: Multiple definitions of model "xor:x3:inverter:cd4007" Type: Mos1
Warning: Multiple definitions of model "xor:x1:inverter:cd4007ube" Type: Mos1
Warning: Multiple definitions of model "xor:x1:inverter:cd4007" Type: Mos1
Ignoring BSIM parameter XL
Ignoring BSIM parameter XW
Ignoring BSIM parameter XL
Ignoring BSIM parameter XW
Ignoring BSIM parameter XL
Ignoring BSIM parameter XW
Ignoring BSIM parameter XL
Ignoring BSIM parameter XW
Ignoring BSIM parameter XL
Ignoring BSIM parameter XW
Ignoring BSIM parameter XL
Ignoring BSIM parameter XW
Ignoring BSIM parameter XL
Ignoring BSIM parameter XW
Ignoring BSIM parameter XL
Ignoring BSIM parameter XW
WARNING: Less than two connections to node C.  This node is used by V_C.
Warning: Pd = 0 is less than W.
Warning: Ps = 0 is less than W.
Warning: Pd = 0 is less than W.
Warning: Ps = 0 is less than W.
Warning: Pd = 0 is less than W.
Warning: Ps = 0 is less than W.
Warning: Pd = 0 is less than W.
Warning: Ps = 0 is less than W.
Warning: Pd = 0 is less than W.
Warning: Ps = 0 is less than W.
Warning: Pd = 0 is less than W.
Warning: Ps = 0 is less than W.
Warning: Pd = 0 is less than W.
Warning: Ps = 0 is less than W.
Warning: Pd = 0 is less than W.
Warning: Ps = 0 is less than W.
Direct Newton iteration for .op point succeeded.
Changing Tseed to 7.8125e-010
Changing Tseed to 7.8125e-012
Changing Tseed to 7.8125e-009
Changing Tseed to 7.8125e-013

Date: Tue Jan 26 17:46:40 2021
Total elapsed time: 0.187 seconds.

tnom = 27
temp = 27
method = modified trap
totiter = 5492
traniter = 5477
tranpoints = 2031
accept = 1792
rejected = 235
matrix size = 19
fillins = 0
solver = Normal
Matrix Compiler1: 1.09 KB object code size  0.3/0.2/[0.1]
Matrix Compiler2: 1.90 KB object code size  0.2/0.2/[0.2]

