Circuit: * C:\Users\RJ\Documents\LTspiceXVII\mux2t1.asc

Warning: Multiple definitions of model "cd4007ube" Type: Mos1
Warning: Multiple definitions of model "cd4007" Type: Mos1
Warning: Multiple definitions of model "or1:inverter:cd4007ube" Type: Mos1
Warning: Multiple definitions of model "or1:inverter:cd4007" Type: Mos1
Warning: Multiple definitions of model "inverter1:cd4007ube" Type: Mos1
Warning: Multiple definitions of model "inverter1:cd4007" Type: Mos1
Warning: Multiple definitions of model "and2:inverter:cd4007ube" Type: Mos1
Warning: Multiple definitions of model "and2:inverter:cd4007" Type: Mos1
Warning: Multiple definitions of model "and1:inverter:cd4007ube" Type: Mos1
Warning: Multiple definitions of model "and1:inverter:cd4007" Type: Mos1
Ignoring BSIM parameter XL
Ignoring BSIM parameter XW
Ignoring BSIM parameter XL
Ignoring BSIM parameter XW
Ignoring BSIM parameter XL
Ignoring BSIM parameter XW
Ignoring BSIM parameter XL
Ignoring BSIM parameter XW
Ignoring BSIM parameter XL
Ignoring BSIM parameter XW
Ignoring BSIM parameter XL
Ignoring BSIM parameter XW
Ignoring BSIM parameter XL
Ignoring BSIM parameter XW
Ignoring BSIM parameter XL
Ignoring BSIM parameter XW
Ignoring BSIM parameter XL
Ignoring BSIM parameter XW
Ignoring BSIM parameter XL
Ignoring BSIM parameter XW
Warning: Pd = 0 is less than W.
Warning: Ps = 0 is less than W.
Warning: Pd = 0 is less than W.
Warning: Ps = 0 is less than W.
Warning: Pd = 0 is less than W.
Warning: Ps = 0 is less than W.
Warning: Pd = 0 is less than W.
Warning: Ps = 0 is less than W.
Warning: Pd = 0 is less than W.
Warning: Ps = 0 is less than W.
Warning: Pd = 0 is less than W.
Warning: Ps = 0 is less than W.
Warning: Pd = 0 is less than W.
Warning: Ps = 0 is less than W.
Warning: Pd = 0 is less than W.
Warning: Ps = 0 is less than W.
Warning: Pd = 0 is less than W.
Warning: Ps = 0 is less than W.
Warning: Pd = 0 is less than W.
Warning: Ps = 0 is less than W.
Direct Newton iteration for .op point succeeded.
Changing Tseed to 7.8125e-010
Changing Tseed to 7.8125e-012
Changing Tseed to 7.8125e-009
Changing Tseed to 7.8125e-013

Date: Fri Feb 05 18:56:20 2021
Total elapsed time: 0.223 seconds.

tnom = 27
temp = 27
method = modified trap
totiter = 7181
traniter = 7149
tranpoints = 2387
accept = 2046
rejected = 337
matrix size = 18
fillins = 0
solver = Normal
Matrix Compiler1: 1.09 KB object code size  0.3/0.1/[0.1]
Matrix Compiler2: 1.77 KB object code size  0.2/0.3/[0.2]

