Circuit: * C:\Users\RJ\Documents\LTspiceXVII\repeated_pulses_example.asc

WARNING: Less than two connections to node N001.  This node is used by V_C1.
WARNING: Less than two connections to node N002.  This node is used by V_B1.
WARNING: Less than two connections to node N003.  This node is used by V_A1.
WARNING: Less than two connections to node A.  This node is used by V_A.
WARNING: Less than two connections to node B.  This node is used by V_B.
WARNING: Less than two connections to node C.  This node is used by V_C.
.OP point found by inspection.

Date: Mon Jan 25 10:15:21 2021
Total elapsed time: 0.125 seconds.

tnom = 27
temp = 27
method = modified trap
totiter = 3298
traniter = 3298
tranpoints = 1650
accept = 1531
rejected = 119
matrix size = 12
fillins = 0
solver = Normal
Matrix Compiler1:      11 opcodes  0.1/[0.1]/0.1
Matrix Compiler2: 472 bytes object code size  0.1/0.1/[0.1]

