Circuit: * C:\Users\RJ\Documents\LTspiceXVII\rtl_inverter.asc

Warning: Multiple definitions of model "cd4007ube" Type: Mos1
Warning: Multiple definitions of model "cd4007" Type: Mos1
Ignoring BSIM parameter XL
Ignoring BSIM parameter XW
Warning: Pd = 0 is less than W.
Warning: Ps = 0 is less than W.

Date: Mon Jan 25 20:16:58 2021
Total elapsed time: 0.104 seconds.

tnom = 27
temp = 27
method = trap
totiter = 1004
traniter = 0
tranpoints = 0
accept = 0
rejected = 0
matrix size = 5
fillins = 0
solver = Normal
Matrix Compiler1: 114 bytes object code size  0.2/0.1/[0.1]
Matrix Compiler2: 301 bytes object code size  0.2/0.2/[0.1]

