Circuit: * C:\Users\RJ\Documents\LTspiceXVII\two_in_nmos_nor_347.asc

Model "dnmos": Oxide thickness thinner than recommended for a level 1 MOSFET.
Instance "ml": Length shorter than recommended for a level 1 MOSFET.
Instance "ml": Width narrower than recommended for a level 1 MOSFET.
Model "enmos": Oxide thickness thinner than recommended for a level 1 MOSFET.
Instance "md2": Length shorter than recommended for a level 1 MOSFET.
Instance "md2": Width narrower than recommended for a level 1 MOSFET.
Instance "md1": Length shorter than recommended for a level 1 MOSFET.
Instance "md1": Width narrower than recommended for a level 1 MOSFET.

Date: Mon Jan 25 17:19:03 2021
Total elapsed time: 0.075 seconds.

tnom = 27
temp = 27
method = trap
totiter = 508
traniter = 0
tranpoints = 0
accept = 0
rejected = 0
matrix size = 13
fillins = 0
solver = Normal
Matrix Compiler1: 576 bytes object code size  0.3/0.1/[0.1]
Matrix Compiler2: 973 bytes object code size  0.2/0.2/[0.1]

