Circuit: * C:\Users\RJ\Documents\LTspiceXVII\two_in_cmos_nand.asc

Model "pmod1": Oxide thickness thinner than recommended for a level 1 MOSFET.
Instance "mp1": Length shorter than recommended for a level 1 MOSFET.
Instance "mp1": Width narrower than recommended for a level 1 MOSFET.
Instance "mp2": Length shorter than recommended for a level 1 MOSFET.
Instance "mp2": Width narrower than recommended for a level 1 MOSFET.
Model "nmod1": Oxide thickness thinner than recommended for a level 1 MOSFET.
Instance "mn2": Length shorter than recommended for a level 1 MOSFET.
Instance "mn1": Length shorter than recommended for a level 1 MOSFET.

Date: Tue Jan 26 20:23:51 2021
Total elapsed time: 0.083 seconds.

tnom = 27
temp = 27
method = trap
totiter = 524
traniter = 0
tranpoints = 0
accept = 0
rejected = 0
matrix size = 16
fillins = 0
solver = Normal
Matrix Compiler1: 826 bytes object code size  0.2/0.1/[0.1]
Matrix Compiler2: 1.43 KB object code size  0.1/0.2/[0.1]

