Circuit: * C:\Users\RJ\Documents\LTspiceXVII\xnor_test.asc

Warning: Multiple definitions of model "cd4007ube" Type: Mos1
Warning: Multiple definitions of model "cd4007" Type: Mos1
x1:or: all pins shorted together -- ignoring.
x1:and: all pins shorted together -- ignoring.
WARNING: Less than two connections to node A.  This node is used by V1.
WARNING: Less than two connections to node B.  This node is used by V2.
WARNING: Less than two connections to node N001.  This node is used by V3.
Direct Newton iteration for .op point succeeded.

Date: Tue Jan 26 11:13:18 2021
Total elapsed time: 0.108 seconds.

tnom = 27
temp = 27
method = modified trap
totiter = 2803
traniter = 2800
tranpoints = 1401
accept = 1356
rejected = 45
matrix size = 6
fillins = 0
solver = Normal
Matrix Compiler1: 74 bytes object code size  0.0/0.0/[0.0]
Matrix Compiler2: 238 bytes object code size  0.0/0.0/[0.0]

