Circuit: * C:\Users\RJ\Documents\LTspiceXVII\gates\ring_oscillator.asc

Warning: Multiple definitions of model "cd4007ube" Type: Mos1
Warning: Multiple definitions of model "cd4007" Type: Mos1
Ignoring BSIM parameter XL
Ignoring BSIM parameter XW
Ignoring BSIM parameter XL
Ignoring BSIM parameter XW
Warning: Pd = 0 is less than W.
Warning: Ps = 0 is less than W.
Warning: Pd = 0 is less than W.
Warning: Ps = 0 is less than W.
Direct Newton iteration for .op point succeeded.

Date: Mon Feb 22 19:26:41 2021
Total elapsed time: 83.294 seconds.

tnom = 27
temp = 27
method = modified trap
totiter = 2686007
traniter = 2685985
tranpoints = 869349
accept = 599363
rejected = 269986
matrix size = 70
fillins = 94
solver = Normal
Thread vector: 50.4/27.3[4] 9.3/4.7[4] 3.5/2.6[4] 0.4/1.9[1]  2592/500
Matrix Compiler1: 11.35 KB object code size  2.1/1.1/[0.8]
Matrix Compiler2: 9.76 KB object code size  1.2/1.2/[0.6]

