Circuit: * C:\Users\RJ\Documents\LTspiceXVII\gates\ring_oscillator.asc

Warning: Multiple definitions of model "cd4007ube" Type: Mos1
Warning: Multiple definitions of model "cd4007" Type: Mos1
Ignoring BSIM parameter XL
Ignoring BSIM parameter XW
Ignoring BSIM parameter XL
Ignoring BSIM parameter XW
Warning: Pd = 0 is less than W.
Warning: Ps = 0 is less than W.
Warning: Pd = 0 is less than W.
Warning: Ps = 0 is less than W.
Direct Newton iteration for .op point succeeded.

Date: Tue Feb 16 20:39:42 2021
Total elapsed time: 1.077 seconds.

tnom = 27
temp = 27
method = modified trap
totiter = 23691
traniter = 23675
tranpoints = 8635
accept = 5958
rejected = 2677
matrix size = 70
fillins = 60
solver = Normal
Thread vector: 56.3/19.1[4] 9.2/6.6[4] 3.1/3.0[1] 0.4/3.3[1]  2592/500
Matrix Compiler1: 9.39 KB object code size  1.9/0.9/[0.6]
Matrix Compiler2: 9.19 KB object code size  0.9/1.0/[0.5]

