Circuit: * C:\Users\RJ\Documents\LTspiceXVII\gates\test74hc00.asc

WARNING: Less than two connections to node U1:U1:UA:TEST.  This node is used by E:U1:U1:UA:TEST.
WARNING: Less than two connections to node U1:U1:UA:VTH_DIFF.  This node is used by E:U1:U1:UA:VTHDIFF.
WARNING: Less than two connections to node U1:U1:UB:TEST.  This node is used by E:U1:U1:UB:TEST.
WARNING: Less than two connections to node U1:U1:UB:VTH_DIFF.  This node is used by E:U1:U1:UB:VTHDIFF.
Singular matrix:  Check nodes e:u1:u1:outpd:tpdnorm#branch and u1:u1:outpd:ntpdnorm
   Iteration No. 5
Direct Newton iteration failed to find .op point.  (Use ".option noopiter" to skip.)
Starting Gmin stepping
Gmin = 10
Gmin = 1.07374
Gmin = 0.115292
Gmin = 0.0123794
Gmin = 0.00132923
vernier = 0.5
vernier = 0.25
vernier = 0.125
vernier = 0.0625
Gmin = 0.00100083
vernier = 0.03125
vernier = 0.015625
vernier = 0.0078125
vernier = 0.00390625
vernier = 0.00195313
Gmin = 0.00100083
vernier = 0.000976563
vernier = 0.000488281
Gmin = 0
Gmin stepping succeeded in finding the operating point.


Date: Tue Mar 02 10:38:15 2021
Total elapsed time: 0.237 seconds.

tnom = 27
temp = 27
method = modified trap
totiter = 3587
traniter = 2207
tranpoints = 1086
accept = 1073
rejected = 13
matrix size = 126
fillins = 33
solver = Normal
Thread vector: 26.7/8.5[4] 1.8/1.3[4] 9.0/3.2[4] 0.5/2.4[1]  2592/500
Matrix Compiler1: 7.52 KB object code size  2.2/1.4/[0.5]
Matrix Compiler2: 10.30 KB object code size  1.3/1.5/[0.5]

